                                  MODFLOW-2005     
      U.S. GEOLOGICAL SURVEY MODULAR FINITE-DIFFERENCE GROUND-WATER FLOW MODEL
              VERSION 1.9.25 06/04/2013 CFPv2 HTM/STM/UMT-LNK/CADS

           THIS IS A RESEARCH VERSION OF CFP MODE 1 FOR TEST PURPOSES
                  WITHOUT ANY WARRANTY REGARDING CORRECTNESS

           CONTACT: THOMAS.REIMANN@TU-DRESDEN.DE / BSHOEMAK@USGS.GOV


 LIST FILE: CFPy_example_01.list
                         UNIT    2

 OPENING CFPy_example_01.dis
 FILE TYPE:DIS   UNIT   11   STATUS:OLD    
 FORMAT:FORMATTED              ACCESS:SEQUENTIAL          

 OPENING CFPy_example_01.bas
 FILE TYPE:BAS6   UNIT   13   STATUS:OLD    
 FORMAT:FORMATTED              ACCESS:SEQUENTIAL          

 OPENING CFPy_example_01.lpf
 FILE TYPE:LPF   UNIT   15   STATUS:OLD    
 FORMAT:FORMATTED              ACCESS:SEQUENTIAL          

 OPENING CFPy_example_01.oc
 FILE TYPE:OC   UNIT   14   STATUS:OLD    
 FORMAT:FORMATTED              ACCESS:SEQUENTIAL          

 OPENING CFPy_example_01.pcg
 FILE TYPE:PCG   UNIT   27   STATUS:OLD    
 FORMAT:FORMATTED              ACCESS:SEQUENTIAL          

 OPENING CFPy_example_01.rch
 FILE TYPE:RCH   UNIT   19   STATUS:OLD    
 FORMAT:FORMATTED              ACCESS:SEQUENTIAL          

 OPENING CFPy_example_01.hds
 FILE TYPE:DATA(BINARY)   UNIT   51   STATUS:REPLACE
 FORMAT:BINARY                 ACCESS:SEQUENTIAL          

 OPENING CFPy_example_01.cbc
 FILE TYPE:DATA(BINARY)   UNIT   50   STATUS:REPLACE
 FORMAT:BINARY                 ACCESS:SEQUENTIAL          

 OPENING CFPy_example_01.coc
 FILE TYPE:COC   UNIT   54   STATUS:OLD    
 FORMAT:FORMATTED              ACCESS:SEQUENTIAL          

 OPENING CFPy_example_01.cfp
 FILE TYPE:CFP   UNIT   52   STATUS:OLD    
 FORMAT:FORMATTED              ACCESS:SEQUENTIAL          

 OPENING CFPy_example_01.crch
 FILE TYPE:CRCH   UNIT   53   STATUS:OLD    
 FORMAT:FORMATTED              ACCESS:SEQUENTIAL          

 BAS -- BASIC PACKAGE, VERSION 7, 5/2/2005 INPUT READ FROM UNIT   13

 DISCRETIZATION INPUT DATA READ FROM UNIT   11
 # DIS package for  MODFLOW-2005, generated by Flopy.
    3 LAYERS         4 ROWS         4 COLUMNS
    5 STRESS PERIOD(S) IN SIMULATION
 MODEL TIME UNIT IS DAYS
 MODEL LENGTH UNIT IS METERS
  Confining bed flag for each layer:
   0   0   0

                     DELR =   10.0000    

                     DELC =   10.0000    



           TOP ELEVATION OF LAYER 1
 READING ON UNIT   11 WITH FORMAT: (4E15.6)            



             MODEL LAYER BOTTOM EL. FOR LAYER   1
 READING ON UNIT   11 WITH FORMAT: (4E15.6)            



             MODEL LAYER BOTTOM EL. FOR LAYER   2
 READING ON UNIT   11 WITH FORMAT: (4E15.6)            



             MODEL LAYER BOTTOM EL. FOR LAYER   3
 READING ON UNIT   11 WITH FORMAT: (4E15.6)            


 STRESS PERIOD     LENGTH       TIME STEPS     MULTIPLIER FOR DELT    SS FLAG
 ----------------------------------------------------------------------------
        1         100.0000         10                    1.000         TR
        2         100.0000         10                    1.000         TR
        3         100.0000         10                    1.000         TR
        4         100.0000         10                    1.000         TR
        5         100.0000         10                    1.000         TR

 TRANSIENT SIMULATION



 
 # BAS6 package for  MODFLOW-2005, generated by Flopy.                           
 THE FREE FORMAT OPTION HAS BEEN SELECTED



                     BOUNDARY ARRAY FOR LAYER   1
 READING ON UNIT   13 WITH FORMAT: (4I10)              



                     BOUNDARY ARRAY FOR LAYER   2
 READING ON UNIT   13 WITH FORMAT: (4I10)              



                     BOUNDARY ARRAY FOR LAYER   3
 READING ON UNIT   13 WITH FORMAT: (4I10)              

 AQUIFER HEAD WILL BE SET TO  -999.99     AT ALL NO-FLOW NODES (IBOUND=0).



                       INITIAL HEAD FOR LAYER   1
 READING ON UNIT   13 WITH FORMAT: (4E15.6)            



                       INITIAL HEAD FOR LAYER   2
 READING ON UNIT   13 WITH FORMAT: (4E15.6)            



                       INITIAL HEAD FOR LAYER   3
 READING ON UNIT   13 WITH FORMAT: (4E15.6)            
 # OC package for  MODFLOW-2005, generated by Flopy.

 OUTPUT CONTROL IS SPECIFIED ONLY AT TIME STEPS FOR WHICH OUTPUT IS DESIRED
 COMPACT CELL-BY-CELL BUDGET FILES WILL BE WRITTEN
 AUXILIARY DATA WILL BE SAVED IN CELL-BY-CELL BUDGET FILES
 HEAD PRINT FORMAT CODE IS   0    DRAWDOWN PRINT FORMAT CODE IS   0
 HEADS WILL BE SAVED ON UNIT   51    DRAWDOWNS WILL BE SAVED ON UNIT    0

 LPF -- LAYER-PROPERTY FLOW PACKAGE, VERSION 7, 5/2/2005
         INPUT READ FROM UNIT   15
 # LPF package for  MODFLOW-2005, generated by Flopy.
 HEAD AT CELLS THAT CONVERT TO DRY= -1.00000E+30
 No named parameters

   LAYER FLAGS:
 LAYER       LAYTYP        LAYAVG         CHANI        LAYVKA        LAYWET
 ---------------------------------------------------------------------------
    1             1             0     1.000E+00             0             0
    2             1             0     1.000E+00             0             0
    3             1             0     1.000E+00             0             0

   INTERPRETATION OF LAYER FLAGS:
                        INTERBLOCK     HORIZONTAL    DATA IN
         LAYER TYPE   TRANSMISSIVITY   ANISOTROPY   ARRAY VKA   WETTABILITY
 LAYER      (LAYTYP)      (LAYAVG)       (CHANI)      (LAYVKA)      (LAYWET)
 ---------------------------------------------------------------------------
    1   CONVERTIBLE      HARMONIC     1.000E+00    VERTICAL K  NON-WETTABLE
    2   CONVERTIBLE      HARMONIC     1.000E+00    VERTICAL K  NON-WETTABLE
    3   CONVERTIBLE      HARMONIC     1.000E+00    VERTICAL K  NON-WETTABLE

 WETTING CAPABILITY IS NOT ACTIVE IN ANY LAYER

    HYD. COND. ALONG ROWS =   1000.00     FOR LAYER   1

      VERTICAL HYD. COND. =   200.000     FOR LAYER   1

         SPECIFIC STORAGE =  2.000000E-05 FOR LAYER   1

           SPECIFIC YIELD =  0.200000     FOR LAYER   1

    HYD. COND. ALONG ROWS =   1000.00     FOR LAYER   2

      VERTICAL HYD. COND. =   200.000     FOR LAYER   2

         SPECIFIC STORAGE =  2.000000E-05 FOR LAYER   2

           SPECIFIC YIELD =  0.200000     FOR LAYER   2

    HYD. COND. ALONG ROWS =   1000.00     FOR LAYER   3

      VERTICAL HYD. COND. =   200.000     FOR LAYER   3

         SPECIFIC STORAGE =  2.000000E-05 FOR LAYER   3

           SPECIFIC YIELD =  0.200000     FOR LAYER   3

 RCH -- RECHARGE PACKAGE, VERSION 7, 5/2/2005 INPUT READ FROM UNIT   19
 # RCH package for  MODFLOW-2005, generated by Flopy.
 No named parameters
 OPTION 1 -- RECHARGE TO TOP LAYER
 CELL-BY-CELL FLOWS WILL BE SAVED ON UNIT   50


     0 Recharge parameters

 PCG -- CONJUGATE-GRADIENT SOLUTION PACKAGE, VERSION 7, 5/2/2005
 # PCG package for  MODFLOW-2005, generated by Flopy.
 MAXIMUM OF     20 CALLS OF SOLUTION ROUTINE
 MAXIMUM OF     10 INTERNAL ITERATIONS PER CALL TO SOLUTION ROUTINE
 MATRIX PRECONDITIONING TYPE :    1
 IHCOFADD option -- When an active cell is surrounded by dry cells, convert
 the cell to dry only if storage and head-dependent boundary flow are 0.



                                    SOLUTION BY THE CONJUGATE-GRADIENT METHOD
                                   -------------------------------------------
                    MAXIMUM NUMBER OF CALLS TO PCG ROUTINE =       20
                        MAXIMUM ITERATIONS PER CALL TO PCG =       10
                               MATRIX PRECONDITIONING TYPE =        1
        RELAXATION FACTOR (ONLY USED WITH PRECOND. TYPE 1) =    0.97000E+00
 PARAMETER OF POLYNOMIAL PRECOND. = 2 (2) OR IS CALCULATED :        2
                         HEAD CHANGE CRITERION FOR CLOSURE =    0.10000E-04
                     RESIDUAL CHANGE CRITERION FOR CLOSURE =    0.10000E-04
            PCG HEAD AND RESIDUAL CHANGE PRINTOUT INTERVAL =        5
     PRINTING FROM SOLVER IS LIMITED(1) OR SUPPRESSED (>1) =        0
                            STEADY-STATE DAMPING PARAMETER =    0.10000E+01
                               TRANSIENT DAMPING PARAMETER =    0.10000E+01
 
 CFP1AR READING FROM UNIT          52
 ---------------------------------
 CFP MODE 1 IS ACTIVE (PIPES) 
 ---------------------------------
    NUMBER OF NODES IS     5
    NUMBER OF TUBES IS     4
    NUMBER OF LAYERS IS    3
 GRAVITATIONAL CONSTANT (G) COMPUTED 
 WATER TEMPERATURE, IN DEGREES CELCIUS, IS    25.0000000000000     
  KINEMATIC VISCOSITY [L^2/T]=  7.716459760582384E-002
 
  NBR-ARRAY: 
         1      2     2     1      3     0     0     0     0     0      1     0     0     0     0     0
         2      1     3     1      3     0     0     0     0     0      2     0     0     0     0     0
         3      2     3     1      1     4     2     0     0     0      1     3     2     0     0     0
         4      3     3     1      5     3     0     0     0     0      4     3     0     0     0     0
         5      4     3     1      4     0     0     0     0     0      4     0     0     0     0     0
 NBR ARRAY READ
  NODE ELEVATIONS:
           1   4.50000000000000     
           2   4.50000000000000     
           3   4.50000000000000     
           4   4.50000000000000     
           5   4.50000000000000     
 FINISHED READING NEWTON RAPHSON ITERATION CONTROLS
 READING NODE AND TUBE DATA
 NO_P  DIAMETER  TORTUOSITY  RHEIGHT  LCRITREY_P TCRITREY_P
   1.     0.100        1.00   0.0100       10.00      20.00
   2.     0.100        1.00   0.0100       10.00      20.00
   3.     0.100        1.00   0.0100       10.00      20.00
   4.     0.100        1.00   0.0100       10.00      20.00
 READING NODE BOUNDARY CONDITIONS (FIXED HEADS, IBOUNDS, AND FBCs)
  NODE  HEAD AND/OR IBOUND
           1  -1.00000000000000     
           2   20.0000000000000     
           3  -1.00000000000000     
           4  -1.00000000000000     
           5  -1.00000000000000     
 SURFACE-AREA DEPENDENT EXCHANGE IS ACTIVE
 READING EXCHANGE COEFFICIENTS
 NODE I  K_EXCHANGE(I)
   1    5.000    
   2    5.000    
   3    5.000    
   4    5.000    
   5    5.000    
 READING CONDUIT OUTPUT CONTROL FROM UNIT          54
 NNODES             5
 TSNO               1
 TSNO               2
 TSNO               3
 TSNO               4
 TSNO               5
 NOTSNO             1
 NTUBES             4
 TSTU               1
 TSTU               2
 TSTU               3
 TSTU               4
 NOTSTU             1
 PROCESSING AND CHECKING CONDUIT-NETWORK
 TESTING THE CONDUIT NETWORK:
  NO ERRORS DETECTED           `:) 
  NO WARNINGS             `:)
 BEGINNING CFPM1 SUBROUTINE DETERM_TUB
 BEGINNING CFPM1 SUBROUTINE GEOCALC THAT CALCULATES XYZ COORDINATES OF NODES
 TOP-ARRAY / BOT-ARRAY:
   5.00000000000000             4.00000000000000     
   4.00000000000000             3.00000000000000     
   3.00000000000000             2.00000000000000     
  NODE   COLUMN    ROW    LAY      X         Y            Z      
      1      2      2      1     15.0000     15.0000     4.50000    
      2      1      3      1     5.00000     25.0000     4.50000    
      3      2      3      1     15.0000     25.0000     4.50000    
      4      3      3      1     25.0000     25.0000     4.50000    
      5      4      3      1     35.0000     25.0000     4.50000    
 
 BEGINNING CFPM1 LENGTH_CAL SUBROUTINE
 BEGINNING CFPM1 ROUGH_CAL SUBROUTINE
1
                            STRESS PERIOD NO.    1, LENGTH =   100.0000    
                            -----------------------------------------------

                              NUMBER OF TIME STEPS =    10

                               MULTIPLIER FOR DELT =     1.000

                            INITIAL TIME STEP SIZE =   10.00000    



                           RECHARGE
 READING ON UNIT   19 WITH FORMAT: (4E15.6)            
 
 CFP1RCH1RP SUBROUTINE READING FROM UNIT           53
  READING INPUT USED TO PARTICIAN RECHARGE
 0.0    0.0    0.0    1.0    0.0   
 COMPUTE NODE LENGTH
 NODE I     L_NODE (I)
   1        5.000
   2        5.000
   3       15.000
   4       10.000
   5        5.000
 
 SOLVING FOR HEAD 
  LAMINAR PRECALCULATION
TUBE   2 SWITCH LAM -> TURB: LAM_RE (   49.33    ) >= TCRITREY:   20.00     TURB_RE:   128.7    
TUBE   3 SWITCH LAM -> TURB: LAM_RE (   49.40    ) >= TCRITREY:   20.00     TURB_RE:   128.8    
MODFLOW ITER.#  NEWTON-RAPHSON ITER.#   MAXIMUM NODE HEAD CHANGE
         1                   1                  0.0000025582
TUBE   2 SWITCH TURB -> LAM: TURBREY (   1.361    ) <= LCRITREY:   10.00     LAM_RE:  0.2384    
TUBE   3 SWITCH TURB -> LAM: TURBREY (   1.077    ) <= LCRITREY:   10.00     LAM_RE:  0.2094    
         1                   2                  0.0000002569
  LAMINAR PRECALCULATION
TUBE   2 SWITCH LAM -> TURB: LAM_RE (   79.71    ) >= TCRITREY:   20.00     TURB_RE:   172.4    
TUBE   3 SWITCH LAM -> TURB: LAM_RE (   66.39    ) >= TCRITREY:   20.00     TURB_RE:   154.4    
MODFLOW ITER.#  NEWTON-RAPHSON ITER.#   MAXIMUM NODE HEAD CHANGE
         2                   1                  0.0000034665
         2                   2                  0.0000005553
         2                   3                  0.0000001633
MODFLOW ITER.#  NEWTON-RAPHSON ITER.#   MAXIMUM NODE HEAD CHANGE
         3                   1                  0.0000000066
         3                   2                  0.0000000000
         3                   3                  0.0000000000


     3 CALLS TO PCG ROUTINE FOR TIME STEP   1 IN STRESS PERIOD    1
    14 TOTAL ITERATIONS
MODFLOW ITER.#  NEWTON-RAPHSON ITER.#   MAXIMUM NODE HEAD CHANGE
         3                   1                  0.0000000000
         3                   2                  0.0000000000
         3                   3                  0.0000000000

 OUTPUT CONTROL FOR STRESS PERIOD    1   TIME STEP   1
    SAVE HEAD FOR ALL LAYERS
 
 
 CFPM1 CRITERION OF CONVERGENCE:     0.1000000E-05
 CFPM1 MAXIMUM NUMBER OF ITERATIONS:   100
 
 
 CFPM1 RESULTS +++++++++++++++++++++++++++++++++++++++++++++++++++++++
 
 STRESS PERIOD/TIME STEP           1           1
 
NUMBER OF NEWTON RHAPSON ITERATIONS:     3
 
 ------- RESULTS OF FLOW CALCULATION -------
 
NODE# NODE HEAD[M] MATRIX HEAD [M] EXCHANGE [M^3/D]    CADSFLOW            PFPSFLOW         DIRECT RECHARGE        QWELL         FHLQ            CAUCHY         CAUCHY LQ               QLH              QFIX
    1  20.00000      20.00027       -0.2105307E-01       0.000000           0.000000           0.000000        0.000000         0.000000         0.000000         0.000000         0.000000         0.000000    
    2  20.00    FIX  20.00000           0.0000           0.000000           0.000000           0.000000        0.000000         0.000000         0.000000         0.000000         0.000000       -0.4842320    
    3  20.00000      20.00026       -0.6016007E-01       0.000000           0.000000           0.000000        0.000000         0.000000         0.000000         0.000000         0.000000         0.000000    
    4  20.00000      20.00040       -0.6251068E-01       0.000000           0.000000          0.3000000        0.000000         0.000000         0.000000         0.000000         0.000000         0.000000    
    5  20.00000      20.00052       -0.4050814E-01       0.000000           0.000000           0.000000        0.000000         0.000000         0.000000         0.000000         0.000000         0.000000    
 
TUBE  B  E  FLOW          Q [M^3/D]       DIAM.[M]        LEN.[M]        RE         RESIDENCE TIME [D]
   1   1   3   LAMI.         0.02105        0.10000       10.00000        3.47382        3.73056
   2   2   3   TURB.        -0.48423        0.10000       10.00000       79.89976        0.16219
   3   3   4   TURB.        -0.40302        0.10000       10.00000       66.49934        0.19488
   4   4   5   LAMI.        -0.04051        0.10000       10.00000        6.68397        1.93887
 

    BUDGET OF THE PIPE SYSTEM OF TIMESTEP    1 IN STRESS PERIOD    1
------------------------------------------------------------------------

  TOTAL SIMULATION TIME   10.0000000000000      S
 
       CUMULATIVE VALUES (L**3)           RATES THIS TIME STEP (L**3/T)

            IN:                               IN:
     CONSTANT HEAD =   0.0000000          CONSTANT HEAD =   0.0000000    
   MATRIX EXCHANGE =   1.8423196        MATRIX EXCHANGE =  0.18423196    
     PIPE RECHARGE =   3.0000000          PIPE RECHARGE =  0.30000000    
       PFP STORAGE =   0.0000000            PFP STORAGE =   0.0000000    

     CUMULATIVE IN =   4.8423196               TOTAL IN =  0.48423196    

           OUT:                               OUT:
     CONSTANT HEAD =   4.8423196          CONSTANT HEAD =  0.48423196    
   MATRIX EXCHANGE =   0.0000000        MATRIX EXCHANGE =   0.0000000    
     PIPE RECHARGE =   0.0000000          PIPE RECHARGE =   0.0000000    
       PFP STORAGE =   0.0000000            PFP STORAGE =   0.0000000    

    CUMULATIVE OUT =   4.8423196              TOTAL OUT =  0.48423196    

          IN - OUT =  0.39634904E-08           IN - OUT =  0.39634909E-09
     PERCENT ERROR =  0.00                PERCENT ERROR =  0.00


 
 ------------------------NODE WATER BUDGET-----------------------
  STRESS PERIOD           1  TIME STEP           1
 TOTAL SIMULATION TIME   10.0000000000000     
 
 FLOW TO THE NODE IN M^3/D
 
 NODE   FIXED HEAD     RECHARGE        QWELL  MATRIX EXCH      STORAGE      TUBE_IN     TUBE_OUT         CADS     FHLQ(LQ)       CAUCHY   CAUCHY(LQ)          QLH     IN - OUT
   1     0.0000       0.0000       0.0000      0.21053E-01   0.0000       0.0000     -0.21053E-01   0.0000       0.0000       0.0000       0.0000       0.0000     -0.89298E-11
   2   -0.48423       0.0000       0.0000       0.0000       0.0000      0.48423       0.0000       0.0000       0.0000       0.0000       0.0000       0.0000       0.0000    
   3     0.0000       0.0000       0.0000      0.60160E-01   0.0000      0.42407     -0.48423       0.0000       0.0000       0.0000       0.0000       0.0000      0.51234E-09
   4     0.0000      0.30000       0.0000      0.62511E-01   0.0000      0.40508E-01 -0.40302       0.0000       0.0000       0.0000       0.0000       0.0000     -0.70156E-10
   5     0.0000       0.0000       0.0000      0.40508E-01   0.0000       0.0000     -0.40508E-01   0.0000       0.0000       0.0000       0.0000       0.0000     -0.36906E-10
 TIME SERIES OUTPUT IN FILE NODE00000001.OUT
 TIME SERIES OUTPUT IN FILE NODE00000002.OUT
 TIME SERIES OUTPUT IN FILE NODE00000003.OUT
 TIME SERIES OUTPUT IN FILE NODE00000004.OUT
 TIME SERIES OUTPUT IN FILE NODE00000005.OUT
 TIME SERIES OUTPUT IN FILE TUBE00000001.OUT
 TIME SERIES OUTPUT IN FILE TUBE00000002.OUT
 TIME SERIES OUTPUT IN FILE TUBE00000003.OUT
 TIME SERIES OUTPUT IN FILE TUBE00000004.OUT

 HEAD WILL BE SAVED ON UNIT   51 AT END OF TIME STEP   1, STRESS PERIOD    1
 
 SOLVING FOR HEAD 
MODFLOW ITER.#  NEWTON-RAPHSON ITER.#   MAXIMUM NODE HEAD CHANGE
         1                   1                  0.0000000000
         1                   2                  0.0000000000
         1                   3                  0.0000000000
     1 CALLS TO PCG ROUTINE FOR TIME STEP   2 IN STRESS PERIOD    1
     1 TOTAL ITERATIONS
MODFLOW ITER.#  NEWTON-RAPHSON ITER.#   MAXIMUM NODE HEAD CHANGE
         1                   1                  0.0000000000
         1                   2                  0.0000000000
         1                   3                  0.0000000000

 NO OUTPUT CONTROL FOR STRESS PERIOD    1   TIME STEP   2
 
 
 CFPM1 CRITERION OF CONVERGENCE:     0.1000000E-05
 CFPM1 MAXIMUM NUMBER OF ITERATIONS:   100
 
 
 CFPM1 RESULTS +++++++++++++++++++++++++++++++++++++++++++++++++++++++
 
 STRESS PERIOD/TIME STEP           1           2
 
NUMBER OF NEWTON RHAPSON ITERATIONS:     3
 
 ------- RESULTS OF FLOW CALCULATION -------
 
NODE# NODE HEAD[M] MATRIX HEAD [M] EXCHANGE [M^3/D]    CADSFLOW            PFPSFLOW         DIRECT RECHARGE        QWELL         FHLQ            CAUCHY         CAUCHY LQ               QLH              QFIX
    1  20.00000      20.00027       -0.2105309E-01       0.000000           0.000000           0.000000        0.000000         0.000000         0.000000         0.000000         0.000000         0.000000    
    2  20.00    FIX  20.00000           0.0000           0.000000           0.000000           0.000000        0.000000         0.000000         0.000000         0.000000         0.000000       -0.4842321    
    3  20.00000      20.00026       -0.6016007E-01       0.000000           0.000000           0.000000        0.000000         0.000000         0.000000         0.000000         0.000000         0.000000    
    4  20.00000      20.00040       -0.6251076E-01       0.000000           0.000000          0.3000000        0.000000         0.000000         0.000000         0.000000         0.000000         0.000000    
    5  20.00000      20.00052       -0.4050817E-01       0.000000           0.000000           0.000000        0.000000         0.000000         0.000000         0.000000         0.000000         0.000000    
 
TUBE  B  E  FLOW          Q [M^3/D]       DIAM.[M]        LEN.[M]        RE         RESIDENCE TIME [D]
   1   1   3   LAMI.         0.02105        0.10000       10.00000        3.47382        3.73056
   2   2   3   TURB.        -0.48423        0.10000       10.00000       79.89978        0.16219
   3   3   4   TURB.        -0.40302        0.10000       10.00000       66.49936        0.19488
   4   4   5   LAMI.        -0.04051        0.10000       10.00000        6.68397        1.93886
 

    BUDGET OF THE PIPE SYSTEM OF TIMESTEP    2 IN STRESS PERIOD    1
------------------------------------------------------------------------

  TOTAL SIMULATION TIME   20.0000000000000      S
 
       CUMULATIVE VALUES (L**3)           RATES THIS TIME STEP (L**3/T)

            IN:                               IN:
     CONSTANT HEAD =   0.0000000          CONSTANT HEAD =   0.0000000    
   MATRIX EXCHANGE =   3.6846405        MATRIX EXCHANGE =  0.18423209    
     PIPE RECHARGE =   6.0000000          PIPE RECHARGE =  0.30000000    
       PFP STORAGE =   0.0000000            PFP STORAGE =   0.0000000    

     CUMULATIVE IN =   9.6846405               TOTAL IN =  0.48423209    

           OUT:                               OUT:
     CONSTANT HEAD =   9.6846405          CONSTANT HEAD =  0.48423209    
   MATRIX EXCHANGE =   0.0000000        MATRIX EXCHANGE =   0.0000000    
     PIPE RECHARGE =   0.0000000          PIPE RECHARGE =   0.0000000    
       PFP STORAGE =   0.0000000            PFP STORAGE =   0.0000000    

    CUMULATIVE OUT =   9.6846405              TOTAL OUT =  0.48423209    

          IN - OUT =  0.57511573E-08           IN - OUT =  0.17876683E-09
     PERCENT ERROR =  0.00                PERCENT ERROR =  0.00


 
 ------------------------NODE WATER BUDGET-----------------------
  STRESS PERIOD           1  TIME STEP           2
 TOTAL SIMULATION TIME   20.0000000000000     
 
 FLOW TO THE NODE IN M^3/D
 
 NODE   FIXED HEAD     RECHARGE        QWELL  MATRIX EXCH      STORAGE      TUBE_IN     TUBE_OUT         CADS     FHLQ(LQ)       CAUCHY   CAUCHY(LQ)          QLH     IN - OUT
   1     0.0000       0.0000       0.0000      0.21053E-01   0.0000       0.0000     -0.21053E-01   0.0000       0.0000       0.0000       0.0000       0.0000     -0.44806E-09
   2   -0.48423       0.0000       0.0000       0.0000       0.0000      0.48423       0.0000       0.0000       0.0000       0.0000       0.0000       0.0000       0.0000    
   3     0.0000       0.0000       0.0000      0.60160E-01   0.0000      0.42407     -0.48423       0.0000       0.0000       0.0000       0.0000       0.0000      0.19114E-09
   4     0.0000      0.30000       0.0000      0.62511E-01   0.0000      0.40508E-01 -0.40302       0.0000       0.0000       0.0000       0.0000       0.0000      0.65690E-09
   5     0.0000       0.0000       0.0000      0.40508E-01   0.0000       0.0000     -0.40508E-01   0.0000       0.0000       0.0000       0.0000       0.0000     -0.22121E-09
 
 SOLVING FOR HEAD 
MODFLOW ITER.#  NEWTON-RAPHSON ITER.#   MAXIMUM NODE HEAD CHANGE
         1                   1                  0.0000000000
         1                   2                  0.0000000000
         1                   3                  0.0000000000
     1 CALLS TO PCG ROUTINE FOR TIME STEP   3 IN STRESS PERIOD    1
     1 TOTAL ITERATIONS
MODFLOW ITER.#  NEWTON-RAPHSON ITER.#   MAXIMUM NODE HEAD CHANGE
         1                   1                  0.0000000000
         1                   2                  0.0000000000
         1                   3                  0.0000000000

 NO OUTPUT CONTROL FOR STRESS PERIOD    1   TIME STEP   3
 
 
 CFPM1 CRITERION OF CONVERGENCE:     0.1000000E-05
 CFPM1 MAXIMUM NUMBER OF ITERATIONS:   100
 
 
 CFPM1 RESULTS +++++++++++++++++++++++++++++++++++++++++++++++++++++++
 
 STRESS PERIOD/TIME STEP           1           3
 
NUMBER OF NEWTON RHAPSON ITERATIONS:     3
 
 ------- RESULTS OF FLOW CALCULATION -------
 
NODE# NODE HEAD[M] MATRIX HEAD [M] EXCHANGE [M^3/D]    CADSFLOW            PFPSFLOW         DIRECT RECHARGE        QWELL         FHLQ            CAUCHY         CAUCHY LQ               QLH              QFIX
    1  20.00000      20.00027       -0.2105310E-01       0.000000           0.000000           0.000000        0.000000         0.000000         0.000000         0.000000         0.000000         0.000000    
    2  20.00    FIX  20.00000           0.0000           0.000000           0.000000           0.000000        0.000000         0.000000         0.000000         0.000000         0.000000       -0.4842321    
    3  20.00000      20.00026       -0.6016008E-01       0.000000           0.000000           0.000000        0.000000         0.000000         0.000000         0.000000         0.000000         0.000000    
    4  20.00000      20.00040       -0.6251076E-01       0.000000           0.000000          0.3000000        0.000000         0.000000         0.000000         0.000000         0.000000         0.000000    
    5  20.00000      20.00052       -0.4050819E-01       0.000000           0.000000           0.000000        0.000000         0.000000         0.000000         0.000000         0.000000         0.000000    
 
TUBE  B  E  FLOW          Q [M^3/D]       DIAM.[M]        LEN.[M]        RE         RESIDENCE TIME [D]
   1   1   3   LAMI.         0.02105        0.10000       10.00000        3.47383        3.73056
   2   2   3   TURB.        -0.48423        0.10000       10.00000       79.89979        0.16219
   3   3   4   TURB.        -0.40302        0.10000       10.00000       66.49936        0.19488
   4   4   5   LAMI.        -0.04051        0.10000       10.00000        6.68397        1.93886
 

    BUDGET OF THE PIPE SYSTEM OF TIMESTEP    3 IN STRESS PERIOD    1
------------------------------------------------------------------------

  TOTAL SIMULATION TIME   30.0000000000000      S
 
       CUMULATIVE VALUES (L**3)           RATES THIS TIME STEP (L**3/T)

            IN:                               IN:
     CONSTANT HEAD =   0.0000000          CONSTANT HEAD =   0.0000000    
   MATRIX EXCHANGE =   5.5269617        MATRIX EXCHANGE =  0.18423212    
     PIPE RECHARGE =   9.0000000          PIPE RECHARGE =  0.30000000    
       PFP STORAGE =   0.0000000            PFP STORAGE =   0.0000000    

     CUMULATIVE IN =   14.526962               TOTAL IN =  0.48423212    

           OUT:                               OUT:
     CONSTANT HEAD =   14.526962          CONSTANT HEAD =  0.48423212    
   MATRIX EXCHANGE =   0.0000000        MATRIX EXCHANGE =   0.0000000    
     PIPE RECHARGE =   0.0000000          PIPE RECHARGE =   0.0000000    
       PFP STORAGE =   0.0000000            PFP STORAGE =   0.0000000    

    CUMULATIVE OUT =   14.526962              TOTAL OUT =  0.48423212    

          IN - OUT =  0.49597491E-08           IN - OUT = -0.79140916E-10
     PERCENT ERROR =  0.00                PERCENT ERROR =  0.00


 
 ------------------------NODE WATER BUDGET-----------------------
  STRESS PERIOD           1  TIME STEP           3
 TOTAL SIMULATION TIME   30.0000000000000     
 
 FLOW TO THE NODE IN M^3/D
 
 NODE   FIXED HEAD     RECHARGE        QWELL  MATRIX EXCH      STORAGE      TUBE_IN     TUBE_OUT         CADS     FHLQ(LQ)       CAUCHY   CAUCHY(LQ)          QLH     IN - OUT
   1     0.0000       0.0000       0.0000      0.21053E-01   0.0000       0.0000     -0.21053E-01   0.0000       0.0000       0.0000       0.0000       0.0000     -0.23884E-09
   2   -0.48423       0.0000       0.0000       0.0000       0.0000      0.48423       0.0000       0.0000       0.0000       0.0000       0.0000       0.0000       0.0000    
   3     0.0000       0.0000       0.0000      0.60160E-01   0.0000      0.42407     -0.48423       0.0000       0.0000       0.0000       0.0000       0.0000      0.31624E-09
   4     0.0000      0.30000       0.0000      0.62511E-01   0.0000      0.40508E-01 -0.40302       0.0000       0.0000       0.0000       0.0000       0.0000      0.15695E-09
   5     0.0000       0.0000       0.0000      0.40508E-01   0.0000       0.0000     -0.40508E-01   0.0000       0.0000       0.0000       0.0000       0.0000     -0.31349E-09
 
 SOLVING FOR HEAD 
MODFLOW ITER.#  NEWTON-RAPHSON ITER.#   MAXIMUM NODE HEAD CHANGE
         1                   1                  0.0000000000
         1                   2                  0.0000000000
         1                   3                  0.0000000000
     1 CALLS TO PCG ROUTINE FOR TIME STEP   4 IN STRESS PERIOD    1
     1 TOTAL ITERATIONS
MODFLOW ITER.#  NEWTON-RAPHSON ITER.#   MAXIMUM NODE HEAD CHANGE
         1                   1                  0.0000000000
         1                   2                  0.0000000000
         1                   3                  0.0000000000

 NO OUTPUT CONTROL FOR STRESS PERIOD    1   TIME STEP   4
 
 
 CFPM1 CRITERION OF CONVERGENCE:     0.1000000E-05
 CFPM1 MAXIMUM NUMBER OF ITERATIONS:   100
 
 
 CFPM1 RESULTS +++++++++++++++++++++++++++++++++++++++++++++++++++++++
 
 STRESS PERIOD/TIME STEP           1           4
 
NUMBER OF NEWTON RHAPSON ITERATIONS:     3
 
 ------- RESULTS OF FLOW CALCULATION -------
 
NODE# NODE HEAD[M] MATRIX HEAD [M] EXCHANGE [M^3/D]    CADSFLOW            PFPSFLOW         DIRECT RECHARGE        QWELL         FHLQ            CAUCHY         CAUCHY LQ               QLH              QFIX
    1  20.00000      20.00027       -0.2105311E-01       0.000000           0.000000           0.000000        0.000000         0.000000         0.000000         0.000000         0.000000         0.000000    
    2  20.00    FIX  20.00000           0.0000           0.000000           0.000000           0.000000        0.000000         0.000000         0.000000         0.000000         0.000000       -0.4842322    
    3  20.00000      20.00026       -0.6016010E-01       0.000000           0.000000           0.000000        0.000000         0.000000         0.000000         0.000000         0.000000         0.000000    
    4  20.00000      20.00040       -0.6251078E-01       0.000000           0.000000          0.3000000        0.000000         0.000000         0.000000         0.000000         0.000000         0.000000    
    5  20.00000      20.00052       -0.4050819E-01       0.000000           0.000000           0.000000        0.000000         0.000000         0.000000         0.000000         0.000000         0.000000    
 
TUBE  B  E  FLOW          Q [M^3/D]       DIAM.[M]        LEN.[M]        RE         RESIDENCE TIME [D]
   1   1   3   LAMI.         0.02105        0.10000       10.00000        3.47383        3.73056
   2   2   3   TURB.        -0.48423        0.10000       10.00000       79.89980        0.16219
   3   3   4   TURB.        -0.40302        0.10000       10.00000       66.49937        0.19488
   4   4   5   LAMI.        -0.04051        0.10000       10.00000        6.68398        1.93886
 

    BUDGET OF THE PIPE SYSTEM OF TIMESTEP    4 IN STRESS PERIOD    1
------------------------------------------------------------------------

  TOTAL SIMULATION TIME   40.0000000000000      S
 
       CUMULATIVE VALUES (L**3)           RATES THIS TIME STEP (L**3/T)

            IN:                               IN:
     CONSTANT HEAD =   0.0000000          CONSTANT HEAD =   0.0000000    
   MATRIX EXCHANGE =   7.3692836        MATRIX EXCHANGE =  0.18423218    
     PIPE RECHARGE =   12.000000          PIPE RECHARGE =  0.30000000    
       PFP STORAGE =   0.0000000            PFP STORAGE =   0.0000000    

     CUMULATIVE IN =   19.369284               TOTAL IN =  0.48423218    

           OUT:                               OUT:
     CONSTANT HEAD =   19.369284          CONSTANT HEAD =  0.48423218    
   MATRIX EXCHANGE =   0.0000000        MATRIX EXCHANGE =   0.0000000    
     PIPE RECHARGE =   0.0000000          PIPE RECHARGE =   0.0000000    
       PFP STORAGE =   0.0000000            PFP STORAGE =   0.0000000    

    CUMULATIVE OUT =   19.369284              TOTAL OUT =  0.48423218    

          IN - OUT =  0.65550578E-08           IN - OUT =  0.15953078E-09
     PERCENT ERROR =  0.00                PERCENT ERROR =  0.00


 
 ------------------------NODE WATER BUDGET-----------------------
  STRESS PERIOD           1  TIME STEP           4
 TOTAL SIMULATION TIME   40.0000000000000     
 
 FLOW TO THE NODE IN M^3/D
 
 NODE   FIXED HEAD     RECHARGE        QWELL  MATRIX EXCH      STORAGE      TUBE_IN     TUBE_OUT         CADS     FHLQ(LQ)       CAUCHY   CAUCHY(LQ)          QLH     IN - OUT
   1     0.0000       0.0000       0.0000      0.21053E-01   0.0000       0.0000     -0.21053E-01   0.0000       0.0000       0.0000       0.0000       0.0000     -0.13047E-09
   2   -0.48423       0.0000       0.0000       0.0000       0.0000      0.48423       0.0000       0.0000       0.0000       0.0000       0.0000       0.0000       0.0000    
   3     0.0000       0.0000       0.0000      0.60160E-01   0.0000      0.42407     -0.48423       0.0000       0.0000       0.0000       0.0000       0.0000     -0.61437E-10
   4     0.0000      0.30000       0.0000      0.62511E-01   0.0000      0.40508E-01 -0.40302       0.0000       0.0000       0.0000       0.0000       0.0000      0.41835E-09
   5     0.0000       0.0000       0.0000      0.40508E-01   0.0000       0.0000     -0.40508E-01   0.0000       0.0000       0.0000       0.0000       0.0000     -0.66904E-10
 
 SOLVING FOR HEAD 
MODFLOW ITER.#  NEWTON-RAPHSON ITER.#   MAXIMUM NODE HEAD CHANGE
         1                   1                  0.0000000000
         1                   2                  0.0000000000
         1                   3                  0.0000000000
     1 CALLS TO PCG ROUTINE FOR TIME STEP   5 IN STRESS PERIOD    1
     1 TOTAL ITERATIONS

 MAXIMUM HEAD CHANGE FOR EACH ITERATION (1 INDICATES THE FIRST INNER ITERATION):

    HEAD CHANGE    HEAD CHANGE    HEAD CHANGE    HEAD CHANGE    HEAD CHANGE 
   LAYER,ROW,COL  LAYER,ROW,COL  LAYER,ROW,COL  LAYER,ROW,COL  LAYER,ROW,COL
 ---------------------------------------------------------------------------
  1  0.2287E-09
   (  3,  1,  4)

 MAXIMUM RESIDUAL FOR EACH ITERATION (1 INDICATES THE FIRST INNER ITERATION):

    RESIDUAL       RESIDUAL       RESIDUAL       RESIDUAL       RESIDUAL    
   LAYER,ROW,COL  LAYER,ROW,COL  LAYER,ROW,COL  LAYER,ROW,COL  LAYER,ROW,COL
 ---------------------------------------------------------------------------
  1  0.2426E-06
   (  1,  3,  3)


MODFLOW ITER.#  NEWTON-RAPHSON ITER.#   MAXIMUM NODE HEAD CHANGE
         1                   1                  0.0000000000
         1                   2                  0.0000000000
         1                   3                  0.0000000000

 NO OUTPUT CONTROL FOR STRESS PERIOD    1   TIME STEP   5
 
 
 CFPM1 CRITERION OF CONVERGENCE:     0.1000000E-05
 CFPM1 MAXIMUM NUMBER OF ITERATIONS:   100
 
 
 CFPM1 RESULTS +++++++++++++++++++++++++++++++++++++++++++++++++++++++
 
 STRESS PERIOD/TIME STEP           1           5
 
NUMBER OF NEWTON RHAPSON ITERATIONS:     3
 
 ------- RESULTS OF FLOW CALCULATION -------
 
NODE# NODE HEAD[M] MATRIX HEAD [M] EXCHANGE [M^3/D]    CADSFLOW            PFPSFLOW         DIRECT RECHARGE        QWELL         FHLQ            CAUCHY         CAUCHY LQ               QLH              QFIX
    1  20.00000      20.00027       -0.2105311E-01       0.000000           0.000000           0.000000        0.000000         0.000000         0.000000         0.000000         0.000000         0.000000    
    2  20.00    FIX  20.00000           0.0000           0.000000           0.000000           0.000000        0.000000         0.000000         0.000000         0.000000         0.000000       -0.4842322    
    3  20.00000      20.00026       -0.6016011E-01       0.000000           0.000000           0.000000        0.000000         0.000000         0.000000         0.000000         0.000000         0.000000    
    4  20.00000      20.00040       -0.6251078E-01       0.000000           0.000000          0.3000000        0.000000         0.000000         0.000000         0.000000         0.000000         0.000000    
    5  20.00000      20.00052       -0.4050820E-01       0.000000           0.000000           0.000000        0.000000         0.000000         0.000000         0.000000         0.000000         0.000000    
 
TUBE  B  E  FLOW          Q [M^3/D]       DIAM.[M]        LEN.[M]        RE         RESIDENCE TIME [D]
   1   1   3   LAMI.         0.02105        0.10000       10.00000        3.47383        3.73056
   2   2   3   TURB.        -0.48423        0.10000       10.00000       79.89980        0.16219
   3   3   4   TURB.        -0.40302        0.10000       10.00000       66.49937        0.19488
   4   4   5   LAMI.        -0.04051        0.10000       10.00000        6.68398        1.93886
 

    BUDGET OF THE PIPE SYSTEM OF TIMESTEP    5 IN STRESS PERIOD    1
------------------------------------------------------------------------

  TOTAL SIMULATION TIME   50.0000000000000      S
 
       CUMULATIVE VALUES (L**3)           RATES THIS TIME STEP (L**3/T)

            IN:                               IN:
     CONSTANT HEAD =   0.0000000          CONSTANT HEAD =   0.0000000    
   MATRIX EXCHANGE =   9.2116055        MATRIX EXCHANGE =  0.18423220    
     PIPE RECHARGE =   15.000000          PIPE RECHARGE =  0.30000000    
       PFP STORAGE =   0.0000000            PFP STORAGE =   0.0000000    

     CUMULATIVE IN =   24.211606               TOTAL IN =  0.48423220    

           OUT:                               OUT:
     CONSTANT HEAD =   24.211606          CONSTANT HEAD =  0.48423220    
   MATRIX EXCHANGE =   0.0000000        MATRIX EXCHANGE =   0.0000000    
     PIPE RECHARGE =   0.0000000          PIPE RECHARGE =   0.0000000    
       PFP STORAGE =   0.0000000            PFP STORAGE =   0.0000000    

    CUMULATIVE OUT =   24.211606              TOTAL OUT =  0.48423220    

          IN - OUT =  0.39639581E-09           IN - OUT = -0.61586602E-09
     PERCENT ERROR =  0.00                PERCENT ERROR =  0.00


 
 ------------------------NODE WATER BUDGET-----------------------
  STRESS PERIOD           1  TIME STEP           5
 TOTAL SIMULATION TIME   50.0000000000000     
 
 FLOW TO THE NODE IN M^3/D
 
 NODE   FIXED HEAD     RECHARGE        QWELL  MATRIX EXCH      STORAGE      TUBE_IN     TUBE_OUT         CADS     FHLQ(LQ)       CAUCHY   CAUCHY(LQ)          QLH     IN - OUT
   1     0.0000       0.0000       0.0000      0.21053E-01   0.0000       0.0000     -0.21053E-01   0.0000       0.0000       0.0000       0.0000       0.0000     -0.64454E-10
   2   -0.48423       0.0000       0.0000       0.0000       0.0000      0.48423       0.0000       0.0000       0.0000       0.0000       0.0000       0.0000       0.0000    
   3     0.0000       0.0000       0.0000      0.60160E-01   0.0000      0.42407     -0.48423       0.0000       0.0000       0.0000       0.0000       0.0000     -0.10346E-08
   4     0.0000      0.30000       0.0000      0.62511E-01   0.0000      0.40508E-01 -0.40302       0.0000       0.0000       0.0000       0.0000       0.0000      0.69275E-09
   5     0.0000       0.0000       0.0000      0.40508E-01   0.0000       0.0000     -0.40508E-01   0.0000       0.0000       0.0000       0.0000       0.0000     -0.20954E-09
 
 SOLVING FOR HEAD 
MODFLOW ITER.#  NEWTON-RAPHSON ITER.#   MAXIMUM NODE HEAD CHANGE
         1                   1                  0.0000000000
         1                   2                  0.0000000000
         1                   3                  0.0000000000
     1 CALLS TO PCG ROUTINE FOR TIME STEP   6 IN STRESS PERIOD    1
     1 TOTAL ITERATIONS
MODFLOW ITER.#  NEWTON-RAPHSON ITER.#   MAXIMUM NODE HEAD CHANGE
         1                   1                  0.0000000000
         1                   2                  0.0000000000
         1                   3                  0.0000000000

 NO OUTPUT CONTROL FOR STRESS PERIOD    1   TIME STEP   6
 
 
 CFPM1 CRITERION OF CONVERGENCE:     0.1000000E-05
 CFPM1 MAXIMUM NUMBER OF ITERATIONS:   100
 
 
 CFPM1 RESULTS +++++++++++++++++++++++++++++++++++++++++++++++++++++++
 
 STRESS PERIOD/TIME STEP           1           6
 
NUMBER OF NEWTON RHAPSON ITERATIONS:     3
 
 ------- RESULTS OF FLOW CALCULATION -------
 
NODE# NODE HEAD[M] MATRIX HEAD [M] EXCHANGE [M^3/D]    CADSFLOW            PFPSFLOW         DIRECT RECHARGE        QWELL         FHLQ            CAUCHY         CAUCHY LQ               QLH              QFIX
    1  20.00000      20.00027       -0.2105311E-01       0.000000           0.000000           0.000000        0.000000         0.000000         0.000000         0.000000         0.000000         0.000000    
    2  20.00    FIX  20.00000           0.0000           0.000000           0.000000           0.000000        0.000000         0.000000         0.000000         0.000000         0.000000       -0.4842322    
    3  20.00000      20.00026       -0.6016012E-01       0.000000           0.000000           0.000000        0.000000         0.000000         0.000000         0.000000         0.000000         0.000000    
    4  20.00000      20.00040       -0.6251079E-01       0.000000           0.000000          0.3000000        0.000000         0.000000         0.000000         0.000000         0.000000         0.000000    
    5  20.00000      20.00052       -0.4050820E-01       0.000000           0.000000           0.000000        0.000000         0.000000         0.000000         0.000000         0.000000         0.000000    
 
TUBE  B  E  FLOW          Q [M^3/D]       DIAM.[M]        LEN.[M]        RE         RESIDENCE TIME [D]
   1   1   3   LAMI.         0.02105        0.10000       10.00000        3.47383        3.73056
   2   2   3   TURB.        -0.48423        0.10000       10.00000       79.89980        0.16219
   3   3   4   TURB.        -0.40302        0.10000       10.00000       66.49937        0.19488
   4   4   5   LAMI.        -0.04051        0.10000       10.00000        6.68398        1.93886
 

    BUDGET OF THE PIPE SYSTEM OF TIMESTEP    6 IN STRESS PERIOD    1
------------------------------------------------------------------------

  TOTAL SIMULATION TIME   60.0000000000000      S
 
       CUMULATIVE VALUES (L**3)           RATES THIS TIME STEP (L**3/T)

            IN:                               IN:
     CONSTANT HEAD =   0.0000000          CONSTANT HEAD =   0.0000000    
   MATRIX EXCHANGE =   11.053928        MATRIX EXCHANGE =  0.18423222    
     PIPE RECHARGE =   18.000000          PIPE RECHARGE =  0.30000000    
       PFP STORAGE =   0.0000000            PFP STORAGE =   0.0000000    

     CUMULATIVE IN =   29.053928               TOTAL IN =  0.48423222    

           OUT:                               OUT:
     CONSTANT HEAD =   29.053928          CONSTANT HEAD =  0.48423222    
   MATRIX EXCHANGE =   0.0000000        MATRIX EXCHANGE =   0.0000000    
     PIPE RECHARGE =   0.0000000          PIPE RECHARGE =   0.0000000    
       PFP STORAGE =   0.0000000            PFP STORAGE =   0.0000000    

    CUMULATIVE OUT =   29.053928              TOTAL OUT =  0.48423222    

          IN - OUT = -0.29150353E-08           IN - OUT = -0.33114314E-09
     PERCENT ERROR =  0.00                PERCENT ERROR =  0.00


 
 ------------------------NODE WATER BUDGET-----------------------
  STRESS PERIOD           1  TIME STEP           6
 TOTAL SIMULATION TIME   60.0000000000000     
 
 FLOW TO THE NODE IN M^3/D
 
 NODE   FIXED HEAD     RECHARGE        QWELL  MATRIX EXCH      STORAGE      TUBE_IN     TUBE_OUT         CADS     FHLQ(LQ)       CAUCHY   CAUCHY(LQ)          QLH     IN - OUT
   1     0.0000       0.0000       0.0000      0.21053E-01   0.0000       0.0000     -0.21053E-01   0.0000       0.0000       0.0000       0.0000       0.0000     -0.10876E-09
   2   -0.48423       0.0000       0.0000       0.0000       0.0000      0.48423       0.0000       0.0000       0.0000       0.0000       0.0000       0.0000       0.0000    
   3     0.0000       0.0000       0.0000      0.60160E-01   0.0000      0.42407     -0.48423       0.0000       0.0000       0.0000       0.0000       0.0000     -0.10325E-08
   4     0.0000      0.30000       0.0000      0.62511E-01   0.0000      0.40508E-01 -0.40302       0.0000       0.0000       0.0000       0.0000       0.0000      0.88900E-09
   5     0.0000       0.0000       0.0000      0.40508E-01   0.0000       0.0000     -0.40508E-01   0.0000       0.0000       0.0000       0.0000       0.0000     -0.78890E-10
 
 SOLVING FOR HEAD 
MODFLOW ITER.#  NEWTON-RAPHSON ITER.#   MAXIMUM NODE HEAD CHANGE
         1                   1                  0.0000000000
         1                   2                  0.0000000000
         1                   3                  0.0000000000
     1 CALLS TO PCG ROUTINE FOR TIME STEP   7 IN STRESS PERIOD    1
     1 TOTAL ITERATIONS
MODFLOW ITER.#  NEWTON-RAPHSON ITER.#   MAXIMUM NODE HEAD CHANGE
         1                   1                  0.0000000000
         1                   2                  0.0000000000
         1                   3                  0.0000000000

 NO OUTPUT CONTROL FOR STRESS PERIOD    1   TIME STEP   7
 
 
 CFPM1 CRITERION OF CONVERGENCE:     0.1000000E-05
 CFPM1 MAXIMUM NUMBER OF ITERATIONS:   100
 
 
 CFPM1 RESULTS +++++++++++++++++++++++++++++++++++++++++++++++++++++++
 
 STRESS PERIOD/TIME STEP           1           7
 
NUMBER OF NEWTON RHAPSON ITERATIONS:     3
 
 ------- RESULTS OF FLOW CALCULATION -------
 
NODE# NODE HEAD[M] MATRIX HEAD [M] EXCHANGE [M^3/D]    CADSFLOW            PFPSFLOW         DIRECT RECHARGE        QWELL         FHLQ            CAUCHY         CAUCHY LQ               QLH              QFIX
    1  20.00000      20.00027       -0.2105311E-01       0.000000           0.000000           0.000000        0.000000         0.000000         0.000000         0.000000         0.000000         0.000000    
    2  20.00    FIX  20.00000           0.0000           0.000000           0.000000           0.000000        0.000000         0.000000         0.000000         0.000000         0.000000       -0.4842322    
    3  20.00000      20.00026       -0.6016012E-01       0.000000           0.000000           0.000000        0.000000         0.000000         0.000000         0.000000         0.000000         0.000000    
    4  20.00000      20.00040       -0.6251079E-01       0.000000           0.000000          0.3000000        0.000000         0.000000         0.000000         0.000000         0.000000         0.000000    
    5  20.00000      20.00052       -0.4050820E-01       0.000000           0.000000           0.000000        0.000000         0.000000         0.000000         0.000000         0.000000         0.000000    
 
TUBE  B  E  FLOW          Q [M^3/D]       DIAM.[M]        LEN.[M]        RE         RESIDENCE TIME [D]
   1   1   3   LAMI.         0.02105        0.10000       10.00000        3.47383        3.73056
   2   2   3   TURB.        -0.48423        0.10000       10.00000       79.89980        0.16219
   3   3   4   TURB.        -0.40302        0.10000       10.00000       66.49937        0.19488
   4   4   5   LAMI.        -0.04051        0.10000       10.00000        6.68398        1.93886
 

    BUDGET OF THE PIPE SYSTEM OF TIMESTEP    7 IN STRESS PERIOD    1
------------------------------------------------------------------------

  TOTAL SIMULATION TIME   70.0000000000000      S
 
       CUMULATIVE VALUES (L**3)           RATES THIS TIME STEP (L**3/T)

            IN:                               IN:
     CONSTANT HEAD =   0.0000000          CONSTANT HEAD =   0.0000000    
   MATRIX EXCHANGE =   12.896250        MATRIX EXCHANGE =  0.18423223    
     PIPE RECHARGE =   21.000000          PIPE RECHARGE =  0.30000000    
       PFP STORAGE =   0.0000000            PFP STORAGE =   0.0000000    

     CUMULATIVE IN =   33.896250               TOTAL IN =  0.48423223    

           OUT:                               OUT:
     CONSTANT HEAD =   33.896250          CONSTANT HEAD =  0.48423223    
   MATRIX EXCHANGE =   0.0000000        MATRIX EXCHANGE =   0.0000000    
     PIPE RECHARGE =   0.0000000          PIPE RECHARGE =   0.0000000    
       PFP STORAGE =   0.0000000            PFP STORAGE =   0.0000000    

    CUMULATIVE OUT =   33.896250              TOTAL OUT =  0.48423223    

          IN - OUT = -0.92740660E-08           IN - OUT = -0.63590297E-09
     PERCENT ERROR =  0.00                PERCENT ERROR =  0.00


 
 ------------------------NODE WATER BUDGET-----------------------
  STRESS PERIOD           1  TIME STEP           7
 TOTAL SIMULATION TIME   70.0000000000000     
 
 FLOW TO THE NODE IN M^3/D
 
 NODE   FIXED HEAD     RECHARGE        QWELL  MATRIX EXCH      STORAGE      TUBE_IN     TUBE_OUT         CADS     FHLQ(LQ)       CAUCHY   CAUCHY(LQ)          QLH     IN - OUT
   1     0.0000       0.0000       0.0000      0.21053E-01   0.0000       0.0000     -0.21053E-01   0.0000       0.0000       0.0000       0.0000       0.0000      0.55338E-09
   2   -0.48423       0.0000       0.0000       0.0000       0.0000      0.48423       0.0000       0.0000       0.0000       0.0000       0.0000       0.0000       0.0000    
   3     0.0000       0.0000       0.0000      0.60160E-01   0.0000      0.42407     -0.48423       0.0000       0.0000       0.0000       0.0000       0.0000     -0.21215E-08
   4     0.0000      0.30000       0.0000      0.62511E-01   0.0000      0.40508E-01 -0.40302       0.0000       0.0000       0.0000       0.0000       0.0000      0.97637E-09
   5     0.0000       0.0000       0.0000      0.40508E-01   0.0000       0.0000     -0.40508E-01   0.0000       0.0000       0.0000       0.0000       0.0000     -0.44120E-10
 
 SOLVING FOR HEAD 
MODFLOW ITER.#  NEWTON-RAPHSON ITER.#   MAXIMUM NODE HEAD CHANGE
         1                   1                  0.0000000000
         1                   2                  0.0000000000
         1                   3                  0.0000000000
     1 CALLS TO PCG ROUTINE FOR TIME STEP   8 IN STRESS PERIOD    1
     1 TOTAL ITERATIONS
MODFLOW ITER.#  NEWTON-RAPHSON ITER.#   MAXIMUM NODE HEAD CHANGE
         1                   1                  0.0000000000
         1                   2                  0.0000000000
         1                   3                  0.0000000000

 NO OUTPUT CONTROL FOR STRESS PERIOD    1   TIME STEP   8
 
 
 CFPM1 CRITERION OF CONVERGENCE:     0.1000000E-05
 CFPM1 MAXIMUM NUMBER OF ITERATIONS:   100
 
 
 CFPM1 RESULTS +++++++++++++++++++++++++++++++++++++++++++++++++++++++
 
 STRESS PERIOD/TIME STEP           1           8
 
NUMBER OF NEWTON RHAPSON ITERATIONS:     3
 
 ------- RESULTS OF FLOW CALCULATION -------
 
NODE# NODE HEAD[M] MATRIX HEAD [M] EXCHANGE [M^3/D]    CADSFLOW            PFPSFLOW         DIRECT RECHARGE        QWELL         FHLQ            CAUCHY         CAUCHY LQ               QLH              QFIX
    1  20.00000      20.00027       -0.2105311E-01       0.000000           0.000000           0.000000        0.000000         0.000000         0.000000         0.000000         0.000000         0.000000    
    2  20.00    FIX  20.00000           0.0000           0.000000           0.000000           0.000000        0.000000         0.000000         0.000000         0.000000         0.000000       -0.4842322    
    3  20.00000      20.00026       -0.6016012E-01       0.000000           0.000000           0.000000        0.000000         0.000000         0.000000         0.000000         0.000000         0.000000    
    4  20.00000      20.00040       -0.6251079E-01       0.000000           0.000000          0.3000000        0.000000         0.000000         0.000000         0.000000         0.000000         0.000000    
    5  20.00000      20.00052       -0.4050820E-01       0.000000           0.000000           0.000000        0.000000         0.000000         0.000000         0.000000         0.000000         0.000000    
 
TUBE  B  E  FLOW          Q [M^3/D]       DIAM.[M]        LEN.[M]        RE         RESIDENCE TIME [D]
   1   1   3   LAMI.         0.02105        0.10000       10.00000        3.47383        3.73056
   2   2   3   TURB.        -0.48423        0.10000       10.00000       79.89981        0.16219
   3   3   4   TURB.        -0.40302        0.10000       10.00000       66.49937        0.19488
   4   4   5   LAMI.        -0.04051        0.10000       10.00000        6.68398        1.93886
 

    BUDGET OF THE PIPE SYSTEM OF TIMESTEP    8 IN STRESS PERIOD    1
------------------------------------------------------------------------

  TOTAL SIMULATION TIME   80.0000000000000      S
 
       CUMULATIVE VALUES (L**3)           RATES THIS TIME STEP (L**3/T)

            IN:                               IN:
     CONSTANT HEAD =   0.0000000          CONSTANT HEAD =   0.0000000    
   MATRIX EXCHANGE =   14.738572        MATRIX EXCHANGE =  0.18423223    
     PIPE RECHARGE =   24.000000          PIPE RECHARGE =  0.30000000    
       PFP STORAGE =   0.0000000            PFP STORAGE =   0.0000000    

     CUMULATIVE IN =   38.738572               TOTAL IN =  0.48423223    

           OUT:                               OUT:
     CONSTANT HEAD =   38.738572          CONSTANT HEAD =  0.48423224    
   MATRIX EXCHANGE =   0.0000000        MATRIX EXCHANGE =   0.0000000    
     PIPE RECHARGE =   0.0000000          PIPE RECHARGE =   0.0000000    
       PFP STORAGE =   0.0000000            PFP STORAGE =   0.0000000    

    CUMULATIVE OUT =   38.738572              TOTAL OUT =  0.48423224    

          IN - OUT = -0.16419094E-07           IN - OUT = -0.71450271E-09
     PERCENT ERROR =  0.00                PERCENT ERROR =  0.00


 
 ------------------------NODE WATER BUDGET-----------------------
  STRESS PERIOD           1  TIME STEP           8
 TOTAL SIMULATION TIME   80.0000000000000     
 
 FLOW TO THE NODE IN M^3/D
 
 NODE   FIXED HEAD     RECHARGE        QWELL  MATRIX EXCH      STORAGE      TUBE_IN     TUBE_OUT         CADS     FHLQ(LQ)       CAUCHY   CAUCHY(LQ)          QLH     IN - OUT
   1     0.0000       0.0000       0.0000      0.21053E-01   0.0000       0.0000     -0.21053E-01   0.0000       0.0000       0.0000       0.0000       0.0000      0.10654E-09
   2   -0.48423       0.0000       0.0000       0.0000       0.0000      0.48423       0.0000       0.0000       0.0000       0.0000       0.0000       0.0000       0.0000    
   3     0.0000       0.0000       0.0000      0.60160E-01   0.0000      0.42407     -0.48423       0.0000       0.0000       0.0000       0.0000       0.0000     -0.23388E-08
   4     0.0000      0.30000       0.0000      0.62511E-01   0.0000      0.40508E-01 -0.40302       0.0000       0.0000       0.0000       0.0000       0.0000      0.19571E-08
   5     0.0000       0.0000       0.0000      0.40508E-01   0.0000       0.0000     -0.40508E-01   0.0000       0.0000       0.0000       0.0000       0.0000     -0.43934E-09
 
 SOLVING FOR HEAD 
MODFLOW ITER.#  NEWTON-RAPHSON ITER.#   MAXIMUM NODE HEAD CHANGE
         1                   1                  0.0000000000
         1                   2                  0.0000000000
         1                   3                  0.0000000000
     1 CALLS TO PCG ROUTINE FOR TIME STEP   9 IN STRESS PERIOD    1
     1 TOTAL ITERATIONS
MODFLOW ITER.#  NEWTON-RAPHSON ITER.#   MAXIMUM NODE HEAD CHANGE
         1                   1                  0.0000000000
         1                   2                  0.0000000000
         1                   3                  0.0000000000

 NO OUTPUT CONTROL FOR STRESS PERIOD    1   TIME STEP   9
 
 
 CFPM1 CRITERION OF CONVERGENCE:     0.1000000E-05
 CFPM1 MAXIMUM NUMBER OF ITERATIONS:   100
 
 
 CFPM1 RESULTS +++++++++++++++++++++++++++++++++++++++++++++++++++++++
 
 STRESS PERIOD/TIME STEP           1           9
 
NUMBER OF NEWTON RHAPSON ITERATIONS:     3
 
 ------- RESULTS OF FLOW CALCULATION -------
 
NODE# NODE HEAD[M] MATRIX HEAD [M] EXCHANGE [M^3/D]    CADSFLOW            PFPSFLOW         DIRECT RECHARGE        QWELL         FHLQ            CAUCHY         CAUCHY LQ               QLH              QFIX
    1  20.00000      20.00027       -0.2105311E-01       0.000000           0.000000           0.000000        0.000000         0.000000         0.000000         0.000000         0.000000         0.000000    
    2  20.00    FIX  20.00000           0.0000           0.000000           0.000000           0.000000        0.000000         0.000000         0.000000         0.000000         0.000000       -0.4842322    
    3  20.00000      20.00026       -0.6016012E-01       0.000000           0.000000           0.000000        0.000000         0.000000         0.000000         0.000000         0.000000         0.000000    
    4  20.00000      20.00040       -0.6251080E-01       0.000000           0.000000          0.3000000        0.000000         0.000000         0.000000         0.000000         0.000000         0.000000    
    5  20.00000      20.00052       -0.4050820E-01       0.000000           0.000000           0.000000        0.000000         0.000000         0.000000         0.000000         0.000000         0.000000    
 
TUBE  B  E  FLOW          Q [M^3/D]       DIAM.[M]        LEN.[M]        RE         RESIDENCE TIME [D]
   1   1   3   LAMI.         0.02105        0.10000       10.00000        3.47383        3.73056
   2   2   3   TURB.        -0.48423        0.10000       10.00000       79.89981        0.16219
   3   3   4   TURB.        -0.40302        0.10000       10.00000       66.49937        0.19488
   4   4   5   LAMI.        -0.04051        0.10000       10.00000        6.68398        1.93886
 

    BUDGET OF THE PIPE SYSTEM OF TIMESTEP    9 IN STRESS PERIOD    1
------------------------------------------------------------------------

  TOTAL SIMULATION TIME   90.0000000000000      S
 
       CUMULATIVE VALUES (L**3)           RATES THIS TIME STEP (L**3/T)

            IN:                               IN:
     CONSTANT HEAD =   0.0000000          CONSTANT HEAD =   0.0000000    
   MATRIX EXCHANGE =   16.580895        MATRIX EXCHANGE =  0.18423224    
     PIPE RECHARGE =   27.000000          PIPE RECHARGE =  0.30000000    
       PFP STORAGE =   0.0000000            PFP STORAGE =   0.0000000    

     CUMULATIVE IN =   43.580895               TOTAL IN =  0.48423224    

           OUT:                               OUT:
     CONSTANT HEAD =   43.580895          CONSTANT HEAD =  0.48423224    
   MATRIX EXCHANGE =   0.0000000        MATRIX EXCHANGE =   0.0000000    
     PIPE RECHARGE =   0.0000000          PIPE RECHARGE =   0.0000000    
       PFP STORAGE =   0.0000000            PFP STORAGE =   0.0000000    

    CUMULATIVE OUT =   43.580895              TOTAL OUT =  0.48423224    

          IN - OUT = -0.22120808E-07           IN - OUT = -0.57017141E-09
     PERCENT ERROR =  0.00                PERCENT ERROR =  0.00


 
 ------------------------NODE WATER BUDGET-----------------------
  STRESS PERIOD           1  TIME STEP           9
 TOTAL SIMULATION TIME   90.0000000000000     
 
 FLOW TO THE NODE IN M^3/D
 
 NODE   FIXED HEAD     RECHARGE        QWELL  MATRIX EXCH      STORAGE      TUBE_IN     TUBE_OUT         CADS     FHLQ(LQ)       CAUCHY   CAUCHY(LQ)          QLH     IN - OUT
   1     0.0000       0.0000       0.0000      0.21053E-01   0.0000       0.0000     -0.21053E-01   0.0000       0.0000       0.0000       0.0000       0.0000      0.35432E-09
   2   -0.48423       0.0000       0.0000       0.0000       0.0000      0.48423       0.0000       0.0000       0.0000       0.0000       0.0000       0.0000       0.0000    
   3     0.0000       0.0000       0.0000      0.60160E-01   0.0000      0.42407     -0.48423       0.0000       0.0000       0.0000       0.0000       0.0000     -0.12064E-08
   4     0.0000      0.30000       0.0000      0.62511E-01   0.0000      0.40508E-01 -0.40302       0.0000       0.0000       0.0000       0.0000       0.0000      0.98172E-10
   5     0.0000       0.0000       0.0000      0.40508E-01   0.0000       0.0000     -0.40508E-01   0.0000       0.0000       0.0000       0.0000       0.0000      0.18374E-09
 
 SOLVING FOR HEAD 
MODFLOW ITER.#  NEWTON-RAPHSON ITER.#   MAXIMUM NODE HEAD CHANGE
         1                   1                  0.0000000000
         1                   2                  0.0000000000
         1                   3                  0.0000000000
     1 CALLS TO PCG ROUTINE FOR TIME STEP  10 IN STRESS PERIOD    1
     1 TOTAL ITERATIONS

 MAXIMUM HEAD CHANGE FOR EACH ITERATION (1 INDICATES THE FIRST INNER ITERATION):

    HEAD CHANGE    HEAD CHANGE    HEAD CHANGE    HEAD CHANGE    HEAD CHANGE 
   LAYER,ROW,COL  LAYER,ROW,COL  LAYER,ROW,COL  LAYER,ROW,COL  LAYER,ROW,COL
 ---------------------------------------------------------------------------
  1  0.9424E-11
   (  3,  2,  3)

 MAXIMUM RESIDUAL FOR EACH ITERATION (1 INDICATES THE FIRST INNER ITERATION):

    RESIDUAL       RESIDUAL       RESIDUAL       RESIDUAL       RESIDUAL    
   LAYER,ROW,COL  LAYER,ROW,COL  LAYER,ROW,COL  LAYER,ROW,COL  LAYER,ROW,COL
 ---------------------------------------------------------------------------
  1 -0.1193E-07
   (  2,  1,  4)


MODFLOW ITER.#  NEWTON-RAPHSON ITER.#   MAXIMUM NODE HEAD CHANGE
         1                   1                  0.0000000000
         1                   2                  0.0000000000
         1                   3                  0.0000000000

 NO OUTPUT CONTROL FOR STRESS PERIOD    1   TIME STEP  10
 
 
 CFPM1 CRITERION OF CONVERGENCE:     0.1000000E-05
 CFPM1 MAXIMUM NUMBER OF ITERATIONS:   100
 
 
 CFPM1 RESULTS +++++++++++++++++++++++++++++++++++++++++++++++++++++++
 
 STRESS PERIOD/TIME STEP           1          10
 
NUMBER OF NEWTON RHAPSON ITERATIONS:     3
 
 ------- RESULTS OF FLOW CALCULATION -------
 
NODE# NODE HEAD[M] MATRIX HEAD [M] EXCHANGE [M^3/D]    CADSFLOW            PFPSFLOW         DIRECT RECHARGE        QWELL         FHLQ            CAUCHY         CAUCHY LQ               QLH              QFIX
    1  20.00000      20.00027       -0.2105311E-01       0.000000           0.000000           0.000000        0.000000         0.000000         0.000000         0.000000         0.000000         0.000000    
    2  20.00    FIX  20.00000           0.0000           0.000000           0.000000           0.000000        0.000000         0.000000         0.000000         0.000000         0.000000       -0.4842322    
    3  20.00000      20.00026       -0.6016012E-01       0.000000           0.000000           0.000000        0.000000         0.000000         0.000000         0.000000         0.000000         0.000000    
    4  20.00000      20.00040       -0.6251080E-01       0.000000           0.000000          0.3000000        0.000000         0.000000         0.000000         0.000000         0.000000         0.000000    
    5  20.00000      20.00052       -0.4050821E-01       0.000000           0.000000           0.000000        0.000000         0.000000         0.000000         0.000000         0.000000         0.000000    
 
TUBE  B  E  FLOW          Q [M^3/D]       DIAM.[M]        LEN.[M]        RE         RESIDENCE TIME [D]
   1   1   3   LAMI.         0.02105        0.10000       10.00000        3.47383        3.73056
   2   2   3   TURB.        -0.48423        0.10000       10.00000       79.89981        0.16219
   3   3   4   TURB.        -0.40302        0.10000       10.00000       66.49937        0.19488
   4   4   5   LAMI.        -0.04051        0.10000       10.00000        6.68398        1.93886
 

    BUDGET OF THE PIPE SYSTEM OF TIMESTEP   10 IN STRESS PERIOD    1
------------------------------------------------------------------------

  TOTAL SIMULATION TIME   100.000000000000      S
 
       CUMULATIVE VALUES (L**3)           RATES THIS TIME STEP (L**3/T)

            IN:                               IN:
     CONSTANT HEAD =   0.0000000          CONSTANT HEAD =   0.0000000    
   MATRIX EXCHANGE =   18.423217        MATRIX EXCHANGE =  0.18423224    
     PIPE RECHARGE =   30.000000          PIPE RECHARGE =  0.30000000    
       PFP STORAGE =   0.0000000            PFP STORAGE =   0.0000000    

     CUMULATIVE IN =   48.423217               TOTAL IN =  0.48423224    

           OUT:                               OUT:
     CONSTANT HEAD =   48.423217          CONSTANT HEAD =  0.48423224    
   MATRIX EXCHANGE =   0.0000000        MATRIX EXCHANGE =   0.0000000    
     PIPE RECHARGE =   0.0000000          PIPE RECHARGE =   0.0000000    
       PFP STORAGE =   0.0000000            PFP STORAGE =   0.0000000    

    CUMULATIVE OUT =   48.423217              TOTAL OUT =  0.48423224    

          IN - OUT = -0.30625301E-07           IN - OUT = -0.85044966E-09
     PERCENT ERROR =  0.00                PERCENT ERROR =  0.00


 
 ------------------------NODE WATER BUDGET-----------------------
  STRESS PERIOD           1  TIME STEP          10
 TOTAL SIMULATION TIME   100.000000000000     
 
 FLOW TO THE NODE IN M^3/D
 
 NODE   FIXED HEAD     RECHARGE        QWELL  MATRIX EXCH      STORAGE      TUBE_IN     TUBE_OUT         CADS     FHLQ(LQ)       CAUCHY   CAUCHY(LQ)          QLH     IN - OUT
   1     0.0000       0.0000       0.0000      0.21053E-01   0.0000       0.0000     -0.21053E-01   0.0000       0.0000       0.0000       0.0000       0.0000     -0.28143E-10
   2   -0.48423       0.0000       0.0000       0.0000       0.0000      0.48423       0.0000       0.0000       0.0000       0.0000       0.0000       0.0000       0.0000    
   3     0.0000       0.0000       0.0000      0.60160E-01   0.0000      0.42407     -0.48423       0.0000       0.0000       0.0000       0.0000       0.0000     -0.78522E-09
   4     0.0000      0.30000       0.0000      0.62511E-01   0.0000      0.40508E-01 -0.40302       0.0000       0.0000       0.0000       0.0000       0.0000     -0.68541E-09
   5     0.0000       0.0000       0.0000      0.40508E-01   0.0000       0.0000     -0.40508E-01   0.0000       0.0000       0.0000       0.0000       0.0000      0.64832E-09
1
  VOLUMETRIC BUDGET FOR ENTIRE MODEL AT END OF TIME STEP 10 IN STRESS PERIOD   1
  ------------------------------------------------------------------------------

     CUMULATIVE VOLUMES      L**3       RATES FOR THIS TIME STEP      L**3/T
     ------------------                 ------------------------

           IN:                                      IN:
           ---                                      ---
             STORAGE =       2.1897E-12               STORAGE =       3.1815E-15
       CONSTANT HEAD =           0.0000         CONSTANT HEAD =           0.0000
            RECHARGE =         330.0000              RECHARGE =           3.3000
               PIPES =           0.0000                 PIPES =           0.0000

            TOTAL IN =         330.0000              TOTAL IN =           3.3000

          OUT:                                     OUT:
          ----                                     ----
             STORAGE =       2.9002E-05               STORAGE =       3.9847E-14
       CONSTANT HEAD =         311.5766         CONSTANT HEAD =           3.1158
            RECHARGE =           0.0000              RECHARGE =           0.0000
               PIPES =          18.4232                 PIPES =           0.1842

           TOTAL OUT =         329.9998             TOTAL OUT =           3.3000

            IN - OUT =       1.5475E-04              IN - OUT =       7.2226E-08

 PERCENT DISCREPANCY =           0.00     PERCENT DISCREPANCY =           0.00






          TIME SUMMARY AT END OF TIME STEP  10 IN STRESS PERIOD    1
                    SECONDS     MINUTES      HOURS       DAYS        YEARS
                    -----------------------------------------------------------
   TIME STEP LENGTH 8.64000E+05  14400.      240.00      10.000     2.73785E-02
 STRESS PERIOD TIME 8.64000E+06 1.44000E+05  2400.0      100.00     0.27379    
         TOTAL TIME 8.64000E+06 1.44000E+05  2400.0      100.00     0.27379    
1
1
                            STRESS PERIOD NO.    2, LENGTH =   100.0000    
                            -----------------------------------------------

                              NUMBER OF TIME STEPS =    10

                               MULTIPLIER FOR DELT =     1.000

                            INITIAL TIME STEP SIZE =   10.00000    



                           RECHARGE
 READING ON UNIT   19 WITH FORMAT: (4E15.6)            
 
 CFP1RCH1RP SUBROUTINE READING FROM UNIT           53
  READING INPUT USED TO PARTICIAN RECHARGE
 0.0    0.0    0.0    1.0    0.0   
 
 SOLVING FOR HEAD 
MODFLOW ITER.#  NEWTON-RAPHSON ITER.#   MAXIMUM NODE HEAD CHANGE
         1                   1                  0.0000007275
         1                   2                  0.0000001008
         1                   3                  0.0000000061
MODFLOW ITER.#  NEWTON-RAPHSON ITER.#   MAXIMUM NODE HEAD CHANGE
         2                   1                  0.0000003671
         2                   2                  0.0000000282
         2                   3                  0.0000000009
MODFLOW ITER.#  NEWTON-RAPHSON ITER.#   MAXIMUM NODE HEAD CHANGE
         3                   1                  0.0000000000
         3                   2                  0.0000000000
         3                   3                  0.0000000000


     3 CALLS TO PCG ROUTINE FOR TIME STEP   1 IN STRESS PERIOD    2
    13 TOTAL ITERATIONS
MODFLOW ITER.#  NEWTON-RAPHSON ITER.#   MAXIMUM NODE HEAD CHANGE
         3                   1                  0.0000000000
         3                   2                  0.0000000000
         3                   3                  0.0000000000

 NO OUTPUT CONTROL FOR STRESS PERIOD    2   TIME STEP   1
 
 
 CFPM1 CRITERION OF CONVERGENCE:     0.1000000E-05
 CFPM1 MAXIMUM NUMBER OF ITERATIONS:   100
 
 
 CFPM1 RESULTS +++++++++++++++++++++++++++++++++++++++++++++++++++++++
 
 STRESS PERIOD/TIME STEP           2           1
 
NUMBER OF NEWTON RHAPSON ITERATIONS:     3
 
 ------- RESULTS OF FLOW CALCULATION -------
 
NODE# NODE HEAD[M] MATRIX HEAD [M] EXCHANGE [M^3/D]    CADSFLOW            PFPSFLOW         DIRECT RECHARGE        QWELL         FHLQ            CAUCHY         CAUCHY LQ               QLH              QFIX
    1  20.00000      20.00009       -0.7023574E-02       0.000000           0.000000           0.000000        0.000000         0.000000         0.000000         0.000000         0.000000         0.000000    
    2  20.00    FIX  20.00000           0.0000           0.000000           0.000000           0.000000        0.000000         0.000000         0.000000         0.000000         0.000000       -0.1614635    
    3  20.00000      20.00009       -0.2007056E-01       0.000000           0.000000           0.000000        0.000000         0.000000         0.000000         0.000000         0.000000         0.000000    
    4  20.00000      20.00013       -0.2085674E-01       0.000000           0.000000          0.1000000        0.000000         0.000000         0.000000         0.000000         0.000000         0.000000    
    5  20.00000      20.00017       -0.1351263E-01       0.000000           0.000000           0.000000        0.000000         0.000000         0.000000         0.000000         0.000000         0.000000    
 
TUBE  B  E  FLOW          Q [M^3/D]       DIAM.[M]        LEN.[M]        RE         RESIDENCE TIME [D]
   1   1   3   LAMI.         0.00702        0.10000       10.00000        1.15891       11.18231
   2   2   3   TURB.        -0.16146        0.10000       10.00000       26.64198        0.48642
   3   3   4   TURB.        -0.13437        0.10000       10.00000       22.17136        0.58451
   4   4   5   LAMI.        -0.01351        0.10000       10.00000        2.22963        5.81232
 

    BUDGET OF THE PIPE SYSTEM OF TIMESTEP    1 IN STRESS PERIOD    2
------------------------------------------------------------------------

  TOTAL SIMULATION TIME   110.000000000000      S
 
       CUMULATIVE VALUES (L**3)           RATES THIS TIME STEP (L**3/T)

            IN:                               IN:
     CONSTANT HEAD =   0.0000000          CONSTANT HEAD =   0.0000000    
   MATRIX EXCHANGE =   19.037852        MATRIX EXCHANGE =  0.61463517E-01
     PIPE RECHARGE =   31.000000          PIPE RECHARGE =  0.10000000    
       PFP STORAGE =   0.0000000            PFP STORAGE =   0.0000000    

     CUMULATIVE IN =   50.037852               TOTAL IN =  0.16146352    

           OUT:                               OUT:
     CONSTANT HEAD =   50.037852          CONSTANT HEAD =  0.16146352    
   MATRIX EXCHANGE =   0.0000000        MATRIX EXCHANGE =   0.0000000    
     PIPE RECHARGE =   0.0000000          PIPE RECHARGE =   0.0000000    
       PFP STORAGE =   0.0000000            PFP STORAGE =   0.0000000    

    CUMULATIVE OUT =   50.037852              TOTAL OUT =  0.16146352    

          IN - OUT = -0.38771422E-07           IN - OUT = -0.81461164E-09
     PERCENT ERROR =  0.00                PERCENT ERROR =  0.00


 
 ------------------------NODE WATER BUDGET-----------------------
  STRESS PERIOD           2  TIME STEP           1
 TOTAL SIMULATION TIME   110.000000000000     
 
 FLOW TO THE NODE IN M^3/D
 
 NODE   FIXED HEAD     RECHARGE        QWELL  MATRIX EXCH      STORAGE      TUBE_IN     TUBE_OUT         CADS     FHLQ(LQ)       CAUCHY   CAUCHY(LQ)          QLH     IN - OUT
   1     0.0000       0.0000       0.0000      0.70236E-02   0.0000       0.0000     -0.70236E-02   0.0000       0.0000       0.0000       0.0000       0.0000      0.78951E-10
   2   -0.16146       0.0000       0.0000       0.0000       0.0000      0.16146       0.0000       0.0000       0.0000       0.0000       0.0000       0.0000       0.0000    
   3     0.0000       0.0000       0.0000      0.20071E-01   0.0000      0.14139     -0.16146       0.0000       0.0000       0.0000       0.0000       0.0000     -0.19135E-08
   4     0.0000      0.10000       0.0000      0.20857E-01   0.0000      0.13513E-01 -0.13437       0.0000       0.0000       0.0000       0.0000       0.0000      0.95319E-09
   5     0.0000       0.0000       0.0000      0.13513E-01   0.0000       0.0000     -0.13513E-01   0.0000       0.0000       0.0000       0.0000       0.0000      0.66739E-10
 
 SOLVING FOR HEAD 
MODFLOW ITER.#  NEWTON-RAPHSON ITER.#   MAXIMUM NODE HEAD CHANGE
         1                   1                  0.0000000000
         1                   2                  0.0000000000
         1                   3                  0.0000000000
     1 CALLS TO PCG ROUTINE FOR TIME STEP   2 IN STRESS PERIOD    2
     1 TOTAL ITERATIONS
MODFLOW ITER.#  NEWTON-RAPHSON ITER.#   MAXIMUM NODE HEAD CHANGE
         1                   1                  0.0000000000
         1                   2                  0.0000000000
         1                   3                  0.0000000000

 NO OUTPUT CONTROL FOR STRESS PERIOD    2   TIME STEP   2
 
 
 CFPM1 CRITERION OF CONVERGENCE:     0.1000000E-05
 CFPM1 MAXIMUM NUMBER OF ITERATIONS:   100
 
 
 CFPM1 RESULTS +++++++++++++++++++++++++++++++++++++++++++++++++++++++
 
 STRESS PERIOD/TIME STEP           2           2
 
NUMBER OF NEWTON RHAPSON ITERATIONS:     3
 
 ------- RESULTS OF FLOW CALCULATION -------
 
NODE# NODE HEAD[M] MATRIX HEAD [M] EXCHANGE [M^3/D]    CADSFLOW            PFPSFLOW         DIRECT RECHARGE        QWELL         FHLQ            CAUCHY         CAUCHY LQ               QLH              QFIX
    1  20.00000      20.00009       -0.7023561E-02       0.000000           0.000000           0.000000        0.000000         0.000000         0.000000         0.000000         0.000000         0.000000    
    2  20.00    FIX  20.00000           0.0000           0.000000           0.000000           0.000000        0.000000         0.000000         0.000000         0.000000         0.000000       -0.1614635    
    3  20.00000      20.00009       -0.2007054E-01       0.000000           0.000000           0.000000        0.000000         0.000000         0.000000         0.000000         0.000000         0.000000    
    4  20.00000      20.00013       -0.2085674E-01       0.000000           0.000000          0.1000000        0.000000         0.000000         0.000000         0.000000         0.000000         0.000000    
    5  20.00000      20.00017       -0.1351262E-01       0.000000           0.000000           0.000000        0.000000         0.000000         0.000000         0.000000         0.000000         0.000000    
 
TUBE  B  E  FLOW          Q [M^3/D]       DIAM.[M]        LEN.[M]        RE         RESIDENCE TIME [D]
   1   1   3   LAMI.         0.00702        0.10000       10.00000        1.15891       11.18233
   2   2   3   TURB.        -0.16146        0.10000       10.00000       26.64197        0.48642
   3   3   4   TURB.        -0.13437        0.10000       10.00000       22.17136        0.58451
   4   4   5   LAMI.        -0.01351        0.10000       10.00000        2.22962        5.81233
 

    BUDGET OF THE PIPE SYSTEM OF TIMESTEP    2 IN STRESS PERIOD    2
------------------------------------------------------------------------

  TOTAL SIMULATION TIME   120.000000000000      S
 
       CUMULATIVE VALUES (L**3)           RATES THIS TIME STEP (L**3/T)

            IN:                               IN:
     CONSTANT HEAD =   0.0000000          CONSTANT HEAD =   0.0000000    
   MATRIX EXCHANGE =   19.652487        MATRIX EXCHANGE =  0.61463464E-01
     PIPE RECHARGE =   32.000000          PIPE RECHARGE =  0.10000000    
       PFP STORAGE =   0.0000000            PFP STORAGE =   0.0000000    

     CUMULATIVE IN =   51.652487               TOTAL IN =  0.16146346    

           OUT:                               OUT:
     CONSTANT HEAD =   51.652487          CONSTANT HEAD =  0.16146346    
   MATRIX EXCHANGE =   0.0000000        MATRIX EXCHANGE =   0.0000000    
     PIPE RECHARGE =   0.0000000          PIPE RECHARGE =   0.0000000    
       PFP STORAGE =   0.0000000            PFP STORAGE =   0.0000000    

    CUMULATIVE OUT =   51.652487              TOTAL OUT =  0.16146346    

          IN - OUT = -0.22755895E-07           IN - OUT =  0.16015528E-08
     PERCENT ERROR =  0.00                PERCENT ERROR =  0.00


 
 ------------------------NODE WATER BUDGET-----------------------
  STRESS PERIOD           2  TIME STEP           2
 TOTAL SIMULATION TIME   120.000000000000     
 
 FLOW TO THE NODE IN M^3/D
 
 NODE   FIXED HEAD     RECHARGE        QWELL  MATRIX EXCH      STORAGE      TUBE_IN     TUBE_OUT         CADS     FHLQ(LQ)       CAUCHY   CAUCHY(LQ)          QLH     IN - OUT
   1     0.0000       0.0000       0.0000      0.70236E-02   0.0000       0.0000     -0.70236E-02   0.0000       0.0000       0.0000       0.0000       0.0000     -0.60483E-09
   2   -0.16146       0.0000       0.0000       0.0000       0.0000      0.16146       0.0000       0.0000       0.0000       0.0000       0.0000       0.0000       0.0000    
   3     0.0000       0.0000       0.0000      0.20071E-01   0.0000      0.14139     -0.16146       0.0000       0.0000       0.0000       0.0000       0.0000      0.47313E-08
   4     0.0000      0.10000       0.0000      0.20857E-01   0.0000      0.13513E-01 -0.13437       0.0000       0.0000       0.0000       0.0000       0.0000     -0.23050E-08
   5     0.0000       0.0000       0.0000      0.13513E-01   0.0000       0.0000     -0.13513E-01   0.0000       0.0000       0.0000       0.0000       0.0000     -0.21990E-09
 
 SOLVING FOR HEAD 
MODFLOW ITER.#  NEWTON-RAPHSON ITER.#   MAXIMUM NODE HEAD CHANGE
         1                   1                  0.0000000000
         1                   2                  0.0000000000
         1                   3                  0.0000000000
     1 CALLS TO PCG ROUTINE FOR TIME STEP   3 IN STRESS PERIOD    2
     1 TOTAL ITERATIONS
MODFLOW ITER.#  NEWTON-RAPHSON ITER.#   MAXIMUM NODE HEAD CHANGE
         1                   1                  0.0000000000
         1                   2                  0.0000000000
         1                   3                  0.0000000000

 NO OUTPUT CONTROL FOR STRESS PERIOD    2   TIME STEP   3
 
 
 CFPM1 CRITERION OF CONVERGENCE:     0.1000000E-05
 CFPM1 MAXIMUM NUMBER OF ITERATIONS:   100
 
 
 CFPM1 RESULTS +++++++++++++++++++++++++++++++++++++++++++++++++++++++
 
 STRESS PERIOD/TIME STEP           2           3
 
NUMBER OF NEWTON RHAPSON ITERATIONS:     3
 
 ------- RESULTS OF FLOW CALCULATION -------
 
NODE# NODE HEAD[M] MATRIX HEAD [M] EXCHANGE [M^3/D]    CADSFLOW            PFPSFLOW         DIRECT RECHARGE        QWELL         FHLQ            CAUCHY         CAUCHY LQ               QLH              QFIX
    1  20.00000      20.00009       -0.7023548E-02       0.000000           0.000000           0.000000        0.000000         0.000000         0.000000         0.000000         0.000000         0.000000    
    2  20.00    FIX  20.00000           0.0000           0.000000           0.000000           0.000000        0.000000         0.000000         0.000000         0.000000         0.000000       -0.1614634    
    3  20.00000      20.00009       -0.2007051E-01       0.000000           0.000000           0.000000        0.000000         0.000000         0.000000         0.000000         0.000000         0.000000    
    4  20.00000      20.00013       -0.2085670E-01       0.000000           0.000000          0.1000000        0.000000         0.000000         0.000000         0.000000         0.000000         0.000000    
    5  20.00000      20.00017       -0.1351261E-01       0.000000           0.000000           0.000000        0.000000         0.000000         0.000000         0.000000         0.000000         0.000000    
 
TUBE  B  E  FLOW          Q [M^3/D]       DIAM.[M]        LEN.[M]        RE         RESIDENCE TIME [D]
   1   1   3   LAMI.         0.00702        0.10000       10.00000        1.15891       11.18236
   2   2   3   TURB.        -0.16146        0.10000       10.00000       26.64195        0.48643
   3   3   4   TURB.        -0.13437        0.10000       10.00000       22.17135        0.58451
   4   4   5   LAMI.        -0.01351        0.10000       10.00000        2.22962        5.81234
 

    BUDGET OF THE PIPE SYSTEM OF TIMESTEP    3 IN STRESS PERIOD    2
------------------------------------------------------------------------

  TOTAL SIMULATION TIME   130.000000000000      S
 
       CUMULATIVE VALUES (L**3)           RATES THIS TIME STEP (L**3/T)

            IN:                               IN:
     CONSTANT HEAD =   0.0000000          CONSTANT HEAD =   0.0000000    
   MATRIX EXCHANGE =   20.267121        MATRIX EXCHANGE =  0.61463364E-01
     PIPE RECHARGE =   33.000000          PIPE RECHARGE =  0.10000000    
       PFP STORAGE =   0.0000000            PFP STORAGE =   0.0000000    

     CUMULATIVE IN =   53.267121               TOTAL IN =  0.16146336    

           OUT:                               OUT:
     CONSTANT HEAD =   53.267121          CONSTANT HEAD =  0.16146336    
   MATRIX EXCHANGE =   0.0000000        MATRIX EXCHANGE =   0.0000000    
     PIPE RECHARGE =   0.0000000          PIPE RECHARGE =   0.0000000    
       PFP STORAGE =   0.0000000            PFP STORAGE =   0.0000000    

    CUMULATIVE OUT =   53.267121              TOTAL OUT =  0.16146336    

          IN - OUT = -0.65123800E-08           IN - OUT =  0.16243523E-08
     PERCENT ERROR =  0.00                PERCENT ERROR =  0.00


 
 ------------------------NODE WATER BUDGET-----------------------
  STRESS PERIOD           2  TIME STEP           3
 TOTAL SIMULATION TIME   130.000000000000     
 
 FLOW TO THE NODE IN M^3/D
 
 NODE   FIXED HEAD     RECHARGE        QWELL  MATRIX EXCH      STORAGE      TUBE_IN     TUBE_OUT         CADS     FHLQ(LQ)       CAUCHY   CAUCHY(LQ)          QLH     IN - OUT
   1     0.0000       0.0000       0.0000      0.70235E-02   0.0000       0.0000     -0.70235E-02   0.0000       0.0000       0.0000       0.0000       0.0000     -0.39747E-09
   2   -0.16146       0.0000       0.0000       0.0000       0.0000      0.16146       0.0000       0.0000       0.0000       0.0000       0.0000       0.0000       0.0000    
   3     0.0000       0.0000       0.0000      0.20071E-01   0.0000      0.14139     -0.16146       0.0000       0.0000       0.0000       0.0000       0.0000      0.54152E-08
   4     0.0000      0.10000       0.0000      0.20857E-01   0.0000      0.13513E-01 -0.13437       0.0000       0.0000       0.0000       0.0000       0.0000     -0.33709E-08
   5     0.0000       0.0000       0.0000      0.13513E-01   0.0000       0.0000     -0.13513E-01   0.0000       0.0000       0.0000       0.0000       0.0000     -0.22565E-10
 
 SOLVING FOR HEAD 
MODFLOW ITER.#  NEWTON-RAPHSON ITER.#   MAXIMUM NODE HEAD CHANGE
         1                   1                  0.0000000000
         1                   2                  0.0000000000
         1                   3                  0.0000000000
     1 CALLS TO PCG ROUTINE FOR TIME STEP   4 IN STRESS PERIOD    2
     1 TOTAL ITERATIONS
MODFLOW ITER.#  NEWTON-RAPHSON ITER.#   MAXIMUM NODE HEAD CHANGE
         1                   1                  0.0000000000
         1                   2                  0.0000000000
         1                   3                  0.0000000000

 NO OUTPUT CONTROL FOR STRESS PERIOD    2   TIME STEP   4
 
 
 CFPM1 CRITERION OF CONVERGENCE:     0.1000000E-05
 CFPM1 MAXIMUM NUMBER OF ITERATIONS:   100
 
 
 CFPM1 RESULTS +++++++++++++++++++++++++++++++++++++++++++++++++++++++
 
 STRESS PERIOD/TIME STEP           2           4
 
NUMBER OF NEWTON RHAPSON ITERATIONS:     3
 
 ------- RESULTS OF FLOW CALCULATION -------
 
NODE# NODE HEAD[M] MATRIX HEAD [M] EXCHANGE [M^3/D]    CADSFLOW            PFPSFLOW         DIRECT RECHARGE        QWELL         FHLQ            CAUCHY         CAUCHY LQ               QLH              QFIX
    1  20.00000      20.00009       -0.7023542E-02       0.000000           0.000000           0.000000        0.000000         0.000000         0.000000         0.000000         0.000000         0.000000    
    2  20.00    FIX  20.00000           0.0000           0.000000           0.000000           0.000000        0.000000         0.000000         0.000000         0.000000         0.000000       -0.1614633    
    3  20.00000      20.00009       -0.2007049E-01       0.000000           0.000000           0.000000        0.000000         0.000000         0.000000         0.000000         0.000000         0.000000    
    4  20.00000      20.00013       -0.2085669E-01       0.000000           0.000000          0.1000000        0.000000         0.000000         0.000000         0.000000         0.000000         0.000000    
    5  20.00000      20.00017       -0.1351260E-01       0.000000           0.000000           0.000000        0.000000         0.000000         0.000000         0.000000         0.000000         0.000000    
 
TUBE  B  E  FLOW          Q [M^3/D]       DIAM.[M]        LEN.[M]        RE         RESIDENCE TIME [D]
   1   1   3   LAMI.         0.00702        0.10000       10.00000        1.15891       11.18237
   2   2   3   TURB.        -0.16146        0.10000       10.00000       26.64194        0.48643
   3   3   4   TURB.        -0.13437        0.10000       10.00000       22.17134        0.58451
   4   4   5   LAMI.        -0.01351        0.10000       10.00000        2.22962        5.81234
 

    BUDGET OF THE PIPE SYSTEM OF TIMESTEP    4 IN STRESS PERIOD    2
------------------------------------------------------------------------

  TOTAL SIMULATION TIME   140.000000000000      S
 
       CUMULATIVE VALUES (L**3)           RATES THIS TIME STEP (L**3/T)

            IN:                               IN:
     CONSTANT HEAD =   0.0000000          CONSTANT HEAD =   0.0000000    
   MATRIX EXCHANGE =   20.881754        MATRIX EXCHANGE =  0.61463320E-01
     PIPE RECHARGE =   34.000000          PIPE RECHARGE =  0.10000000    
       PFP STORAGE =   0.0000000            PFP STORAGE =   0.0000000    

     CUMULATIVE IN =   54.881754               TOTAL IN =  0.16146332    

           OUT:                               OUT:
     CONSTANT HEAD =   54.881754          CONSTANT HEAD =  0.16146332    
   MATRIX EXCHANGE =   0.0000000        MATRIX EXCHANGE =   0.0000000    
     PIPE RECHARGE =   0.0000000          PIPE RECHARGE =   0.0000000    
       PFP STORAGE =   0.0000000            PFP STORAGE =   0.0000000    

    CUMULATIVE OUT =   54.881754              TOTAL OUT =  0.16146332    

          IN - OUT = -0.19991226E-07           IN - OUT = -0.13478847E-08
     PERCENT ERROR =  0.00                PERCENT ERROR =  0.00


 
 ------------------------NODE WATER BUDGET-----------------------
  STRESS PERIOD           2  TIME STEP           4
 TOTAL SIMULATION TIME   140.000000000000     
 
 FLOW TO THE NODE IN M^3/D
 
 NODE   FIXED HEAD     RECHARGE        QWELL  MATRIX EXCH      STORAGE      TUBE_IN     TUBE_OUT         CADS     FHLQ(LQ)       CAUCHY   CAUCHY(LQ)          QLH     IN - OUT
   1     0.0000       0.0000       0.0000      0.70235E-02   0.0000       0.0000     -0.70235E-02   0.0000       0.0000       0.0000       0.0000       0.0000     -0.41834E-10
   2   -0.16146       0.0000       0.0000       0.0000       0.0000      0.16146       0.0000       0.0000       0.0000       0.0000       0.0000       0.0000       0.0000    
   3     0.0000       0.0000       0.0000      0.20070E-01   0.0000      0.14139     -0.16146       0.0000       0.0000       0.0000       0.0000       0.0000     -0.14709E-08
   4     0.0000      0.10000       0.0000      0.20857E-01   0.0000      0.13513E-01 -0.13437       0.0000       0.0000       0.0000       0.0000       0.0000     -0.12563E-09
   5     0.0000       0.0000       0.0000      0.13513E-01   0.0000       0.0000     -0.13513E-01   0.0000       0.0000       0.0000       0.0000       0.0000      0.29052E-09
 
 SOLVING FOR HEAD 
MODFLOW ITER.#  NEWTON-RAPHSON ITER.#   MAXIMUM NODE HEAD CHANGE
         1                   1                  0.0000000000
         1                   2                  0.0000000000
         1                   3                  0.0000000000
     1 CALLS TO PCG ROUTINE FOR TIME STEP   5 IN STRESS PERIOD    2
     1 TOTAL ITERATIONS

 MAXIMUM HEAD CHANGE FOR EACH ITERATION (1 INDICATES THE FIRST INNER ITERATION):

    HEAD CHANGE    HEAD CHANGE    HEAD CHANGE    HEAD CHANGE    HEAD CHANGE 
   LAYER,ROW,COL  LAYER,ROW,COL  LAYER,ROW,COL  LAYER,ROW,COL  LAYER,ROW,COL
 ---------------------------------------------------------------------------
  1  0.1291E-09
   (  2,  1,  4)

 MAXIMUM RESIDUAL FOR EACH ITERATION (1 INDICATES THE FIRST INNER ITERATION):

    RESIDUAL       RESIDUAL       RESIDUAL       RESIDUAL       RESIDUAL    
   LAYER,ROW,COL  LAYER,ROW,COL  LAYER,ROW,COL  LAYER,ROW,COL  LAYER,ROW,COL
 ---------------------------------------------------------------------------
  1  0.1780E-06
   (  2,  3,  2)


MODFLOW ITER.#  NEWTON-RAPHSON ITER.#   MAXIMUM NODE HEAD CHANGE
         1                   1                  0.0000000000
         1                   2                  0.0000000000
         1                   3                  0.0000000000

 NO OUTPUT CONTROL FOR STRESS PERIOD    2   TIME STEP   5
 
 
 CFPM1 CRITERION OF CONVERGENCE:     0.1000000E-05
 CFPM1 MAXIMUM NUMBER OF ITERATIONS:   100
 
 
 CFPM1 RESULTS +++++++++++++++++++++++++++++++++++++++++++++++++++++++
 
 STRESS PERIOD/TIME STEP           2           5
 
NUMBER OF NEWTON RHAPSON ITERATIONS:     3
 
 ------- RESULTS OF FLOW CALCULATION -------
 
NODE# NODE HEAD[M] MATRIX HEAD [M] EXCHANGE [M^3/D]    CADSFLOW            PFPSFLOW         DIRECT RECHARGE        QWELL         FHLQ            CAUCHY         CAUCHY LQ               QLH              QFIX
    1  20.00000      20.00009       -0.7023537E-02       0.000000           0.000000           0.000000        0.000000         0.000000         0.000000         0.000000         0.000000         0.000000    
    2  20.00    FIX  20.00000           0.0000           0.000000           0.000000           0.000000        0.000000         0.000000         0.000000         0.000000         0.000000       -0.1614633    
    3  20.00000      20.00009       -0.2007048E-01       0.000000           0.000000           0.000000        0.000000         0.000000         0.000000         0.000000         0.000000         0.000000    
    4  20.00000      20.00013       -0.2085667E-01       0.000000           0.000000          0.1000000        0.000000         0.000000         0.000000         0.000000         0.000000         0.000000    
    5  20.00000      20.00017       -0.1351259E-01       0.000000           0.000000           0.000000        0.000000         0.000000         0.000000         0.000000         0.000000         0.000000    
 
TUBE  B  E  FLOW          Q [M^3/D]       DIAM.[M]        LEN.[M]        RE         RESIDENCE TIME [D]
   1   1   3   LAMI.         0.00702        0.10000       10.00000        1.15891       11.18238
   2   2   3   TURB.        -0.16146        0.10000       10.00000       26.64194        0.48643
   3   3   4   TURB.        -0.13437        0.10000       10.00000       22.17134        0.58451
   4   4   5   LAMI.        -0.01351        0.10000       10.00000        2.22962        5.81234
 

    BUDGET OF THE PIPE SYSTEM OF TIMESTEP    5 IN STRESS PERIOD    2
------------------------------------------------------------------------

  TOTAL SIMULATION TIME   150.000000000000      S
 
       CUMULATIVE VALUES (L**3)           RATES THIS TIME STEP (L**3/T)

            IN:                               IN:
     CONSTANT HEAD =   0.0000000          CONSTANT HEAD =   0.0000000    
   MATRIX EXCHANGE =   21.496387        MATRIX EXCHANGE =  0.61463279E-01
     PIPE RECHARGE =   35.000000          PIPE RECHARGE =  0.10000000    
       PFP STORAGE =   0.0000000            PFP STORAGE =   0.0000000    

     CUMULATIVE IN =   56.496387               TOTAL IN =  0.16146328    

           OUT:                               OUT:
     CONSTANT HEAD =   56.496387          CONSTANT HEAD =  0.16146328    
   MATRIX EXCHANGE =   0.0000000        MATRIX EXCHANGE =   0.0000000    
     PIPE RECHARGE =   0.0000000          PIPE RECHARGE =   0.0000000    
       PFP STORAGE =   0.0000000            PFP STORAGE =   0.0000000    

    CUMULATIVE OUT =   56.496387              TOTAL OUT =  0.16146328    

          IN - OUT = -0.23843654E-07           IN - OUT = -0.38524267E-09
     PERCENT ERROR =  0.00                PERCENT ERROR =  0.00


 
 ------------------------NODE WATER BUDGET-----------------------
  STRESS PERIOD           2  TIME STEP           5
 TOTAL SIMULATION TIME   150.000000000000     
 
 FLOW TO THE NODE IN M^3/D
 
 NODE   FIXED HEAD     RECHARGE        QWELL  MATRIX EXCH      STORAGE      TUBE_IN     TUBE_OUT         CADS     FHLQ(LQ)       CAUCHY   CAUCHY(LQ)          QLH     IN - OUT
   1     0.0000       0.0000       0.0000      0.70235E-02   0.0000       0.0000     -0.70235E-02   0.0000       0.0000       0.0000       0.0000       0.0000      0.42578E-09
   2   -0.16146       0.0000       0.0000       0.0000       0.0000      0.16146       0.0000       0.0000       0.0000       0.0000       0.0000       0.0000       0.0000    
   3     0.0000       0.0000       0.0000      0.20070E-01   0.0000      0.14139     -0.16146       0.0000       0.0000       0.0000       0.0000       0.0000     -0.21273E-08
   4     0.0000      0.10000       0.0000      0.20857E-01   0.0000      0.13513E-01 -0.13437       0.0000       0.0000       0.0000       0.0000       0.0000      0.12358E-08
   5     0.0000       0.0000       0.0000      0.13513E-01   0.0000       0.0000     -0.13513E-01   0.0000       0.0000       0.0000       0.0000       0.0000      0.80457E-10
 
 SOLVING FOR HEAD 
MODFLOW ITER.#  NEWTON-RAPHSON ITER.#   MAXIMUM NODE HEAD CHANGE
         1                   1                  0.0000000000
         1                   2                  0.0000000000
         1                   3                  0.0000000000
     1 CALLS TO PCG ROUTINE FOR TIME STEP   6 IN STRESS PERIOD    2
     1 TOTAL ITERATIONS
MODFLOW ITER.#  NEWTON-RAPHSON ITER.#   MAXIMUM NODE HEAD CHANGE
         1                   1                  0.0000000000
         1                   2                  0.0000000000
         1                   3                  0.0000000000

 NO OUTPUT CONTROL FOR STRESS PERIOD    2   TIME STEP   6
 
 
 CFPM1 CRITERION OF CONVERGENCE:     0.1000000E-05
 CFPM1 MAXIMUM NUMBER OF ITERATIONS:   100
 
 
 CFPM1 RESULTS +++++++++++++++++++++++++++++++++++++++++++++++++++++++
 
 STRESS PERIOD/TIME STEP           2           6
 
NUMBER OF NEWTON RHAPSON ITERATIONS:     3
 
 ------- RESULTS OF FLOW CALCULATION -------
 
NODE# NODE HEAD[M] MATRIX HEAD [M] EXCHANGE [M^3/D]    CADSFLOW            PFPSFLOW         DIRECT RECHARGE        QWELL         FHLQ            CAUCHY         CAUCHY LQ               QLH              QFIX
    1  20.00000      20.00009       -0.7023534E-02       0.000000           0.000000           0.000000        0.000000         0.000000         0.000000         0.000000         0.000000         0.000000    
    2  20.00    FIX  20.00000           0.0000           0.000000           0.000000           0.000000        0.000000         0.000000         0.000000         0.000000         0.000000       -0.1614633    
    3  20.00000      20.00009       -0.2007047E-01       0.000000           0.000000           0.000000        0.000000         0.000000         0.000000         0.000000         0.000000         0.000000    
    4  20.00000      20.00013       -0.2085667E-01       0.000000           0.000000          0.1000000        0.000000         0.000000         0.000000         0.000000         0.000000         0.000000    
    5  20.00000      20.00017       -0.1351259E-01       0.000000           0.000000           0.000000        0.000000         0.000000         0.000000         0.000000         0.000000         0.000000    
 
TUBE  B  E  FLOW          Q [M^3/D]       DIAM.[M]        LEN.[M]        RE         RESIDENCE TIME [D]
   1   1   3   LAMI.         0.00702        0.10000       10.00000        1.15890       11.18238
   2   2   3   TURB.        -0.16146        0.10000       10.00000       26.64193        0.48643
   3   3   4   TURB.        -0.13437        0.10000       10.00000       22.17134        0.58451
   4   4   5   LAMI.        -0.01351        0.10000       10.00000        2.22962        5.81234
 

    BUDGET OF THE PIPE SYSTEM OF TIMESTEP    6 IN STRESS PERIOD    2
------------------------------------------------------------------------

  TOTAL SIMULATION TIME   160.000000000000      S
 
       CUMULATIVE VALUES (L**3)           RATES THIS TIME STEP (L**3/T)

            IN:                               IN:
     CONSTANT HEAD =   0.0000000          CONSTANT HEAD =   0.0000000    
   MATRIX EXCHANGE =   22.111019        MATRIX EXCHANGE =  0.61463260E-01
     PIPE RECHARGE =   36.000000          PIPE RECHARGE =  0.10000000    
       PFP STORAGE =   0.0000000            PFP STORAGE =   0.0000000    

     CUMULATIVE IN =   58.111019               TOTAL IN =  0.16146326    

           OUT:                               OUT:
     CONSTANT HEAD =   58.111019          CONSTANT HEAD =  0.16146326    
   MATRIX EXCHANGE =   0.0000000        MATRIX EXCHANGE =   0.0000000    
     PIPE RECHARGE =   0.0000000          PIPE RECHARGE =   0.0000000    
       PFP STORAGE =   0.0000000            PFP STORAGE =   0.0000000    

    CUMULATIVE OUT =   58.111019              TOTAL OUT =  0.16146326    

          IN - OUT = -0.12777800E-07           IN - OUT =  0.11065855E-08
     PERCENT ERROR =  0.00                PERCENT ERROR =  0.00


 
 ------------------------NODE WATER BUDGET-----------------------
  STRESS PERIOD           2  TIME STEP           6
 TOTAL SIMULATION TIME   160.000000000000     
 
 FLOW TO THE NODE IN M^3/D
 
 NODE   FIXED HEAD     RECHARGE        QWELL  MATRIX EXCH      STORAGE      TUBE_IN     TUBE_OUT         CADS     FHLQ(LQ)       CAUCHY   CAUCHY(LQ)          QLH     IN - OUT
   1     0.0000       0.0000       0.0000      0.70235E-02   0.0000       0.0000     -0.70235E-02   0.0000       0.0000       0.0000       0.0000       0.0000     -0.42710E-09
   2   -0.16146       0.0000       0.0000       0.0000       0.0000      0.16146       0.0000       0.0000       0.0000       0.0000       0.0000       0.0000       0.0000    
   3     0.0000       0.0000       0.0000      0.20070E-01   0.0000      0.14139     -0.16146       0.0000       0.0000       0.0000       0.0000       0.0000      0.10850E-08
   4     0.0000      0.10000       0.0000      0.20857E-01   0.0000      0.13513E-01 -0.13437       0.0000       0.0000       0.0000       0.0000       0.0000      0.81737E-09
   5     0.0000       0.0000       0.0000      0.13513E-01   0.0000       0.0000     -0.13513E-01   0.0000       0.0000       0.0000       0.0000       0.0000     -0.36865E-09
 
 SOLVING FOR HEAD 
MODFLOW ITER.#  NEWTON-RAPHSON ITER.#   MAXIMUM NODE HEAD CHANGE
         1                   1                  0.0000000000
         1                   2                  0.0000000000
         1                   3                  0.0000000000
     1 CALLS TO PCG ROUTINE FOR TIME STEP   7 IN STRESS PERIOD    2
     1 TOTAL ITERATIONS
MODFLOW ITER.#  NEWTON-RAPHSON ITER.#   MAXIMUM NODE HEAD CHANGE
         1                   1                  0.0000000000
         1                   2                  0.0000000000
         1                   3                  0.0000000000

 NO OUTPUT CONTROL FOR STRESS PERIOD    2   TIME STEP   7
 
 
 CFPM1 CRITERION OF CONVERGENCE:     0.1000000E-05
 CFPM1 MAXIMUM NUMBER OF ITERATIONS:   100
 
 
 CFPM1 RESULTS +++++++++++++++++++++++++++++++++++++++++++++++++++++++
 
 STRESS PERIOD/TIME STEP           2           7
 
NUMBER OF NEWTON RHAPSON ITERATIONS:     3
 
 ------- RESULTS OF FLOW CALCULATION -------
 
NODE# NODE HEAD[M] MATRIX HEAD [M] EXCHANGE [M^3/D]    CADSFLOW            PFPSFLOW         DIRECT RECHARGE        QWELL         FHLQ            CAUCHY         CAUCHY LQ               QLH              QFIX
    1  20.00000      20.00009       -0.7023532E-02       0.000000           0.000000           0.000000        0.000000         0.000000         0.000000         0.000000         0.000000         0.000000    
    2  20.00    FIX  20.00000           0.0000           0.000000           0.000000           0.000000        0.000000         0.000000         0.000000         0.000000         0.000000       -0.1614632    
    3  20.00000      20.00009       -0.2007046E-01       0.000000           0.000000           0.000000        0.000000         0.000000         0.000000         0.000000         0.000000         0.000000    
    4  20.00000      20.00013       -0.2085666E-01       0.000000           0.000000          0.1000000        0.000000         0.000000         0.000000         0.000000         0.000000         0.000000    
    5  20.00000      20.00017       -0.1351259E-01       0.000000           0.000000           0.000000        0.000000         0.000000         0.000000         0.000000         0.000000         0.000000    
 
TUBE  B  E  FLOW          Q [M^3/D]       DIAM.[M]        LEN.[M]        RE         RESIDENCE TIME [D]
   1   1   3   LAMI.         0.00702        0.10000       10.00000        1.15890       11.18238
   2   2   3   TURB.        -0.16146        0.10000       10.00000       26.64193        0.48643
   3   3   4   TURB.        -0.13437        0.10000       10.00000       22.17134        0.58451
   4   4   5   LAMI.        -0.01351        0.10000       10.00000        2.22962        5.81235
 

    BUDGET OF THE PIPE SYSTEM OF TIMESTEP    7 IN STRESS PERIOD    2
------------------------------------------------------------------------

  TOTAL SIMULATION TIME   170.000000000000      S
 
       CUMULATIVE VALUES (L**3)           RATES THIS TIME STEP (L**3/T)

            IN:                               IN:
     CONSTANT HEAD =   0.0000000          CONSTANT HEAD =   0.0000000    
   MATRIX EXCHANGE =   22.725652        MATRIX EXCHANGE =  0.61463244E-01
     PIPE RECHARGE =   37.000000          PIPE RECHARGE =  0.10000000    
       PFP STORAGE =   0.0000000            PFP STORAGE =   0.0000000    

     CUMULATIVE IN =   59.725652               TOTAL IN =  0.16146324    

           OUT:                               OUT:
     CONSTANT HEAD =   59.725652          CONSTANT HEAD =  0.16146325    
   MATRIX EXCHANGE =   0.0000000        MATRIX EXCHANGE =   0.0000000    
     PIPE RECHARGE =   0.0000000          PIPE RECHARGE =   0.0000000    
       PFP STORAGE =   0.0000000            PFP STORAGE =   0.0000000    

    CUMULATIVE OUT =   59.725652              TOTAL OUT =  0.16146325    

          IN - OUT = -0.24393330E-07           IN - OUT = -0.11615533E-08
     PERCENT ERROR =  0.00                PERCENT ERROR =  0.00


 
 ------------------------NODE WATER BUDGET-----------------------
  STRESS PERIOD           2  TIME STEP           7
 TOTAL SIMULATION TIME   170.000000000000     
 
 FLOW TO THE NODE IN M^3/D
 
 NODE   FIXED HEAD     RECHARGE        QWELL  MATRIX EXCH      STORAGE      TUBE_IN     TUBE_OUT         CADS     FHLQ(LQ)       CAUCHY   CAUCHY(LQ)          QLH     IN - OUT
   1     0.0000       0.0000       0.0000      0.70235E-02   0.0000       0.0000     -0.70235E-02   0.0000       0.0000       0.0000       0.0000       0.0000     -0.50946E-10
   2   -0.16146       0.0000       0.0000       0.0000       0.0000      0.16146       0.0000       0.0000       0.0000       0.0000       0.0000       0.0000       0.0000    
   3     0.0000       0.0000       0.0000      0.20070E-01   0.0000      0.14139     -0.16146       0.0000       0.0000       0.0000       0.0000       0.0000     -0.72721E-09
   4     0.0000      0.10000       0.0000      0.20857E-01   0.0000      0.13513E-01 -0.13437       0.0000       0.0000       0.0000       0.0000       0.0000     -0.57618E-09
   5     0.0000       0.0000       0.0000      0.13513E-01   0.0000       0.0000     -0.13513E-01   0.0000       0.0000       0.0000       0.0000       0.0000      0.19278E-09
 
 SOLVING FOR HEAD 
MODFLOW ITER.#  NEWTON-RAPHSON ITER.#   MAXIMUM NODE HEAD CHANGE
         1                   1                  0.0000000000
         1                   2                  0.0000000000
         1                   3                  0.0000000000
     1 CALLS TO PCG ROUTINE FOR TIME STEP   8 IN STRESS PERIOD    2
     1 TOTAL ITERATIONS
MODFLOW ITER.#  NEWTON-RAPHSON ITER.#   MAXIMUM NODE HEAD CHANGE
         1                   1                  0.0000000000
         1                   2                  0.0000000000
         1                   3                  0.0000000000

 NO OUTPUT CONTROL FOR STRESS PERIOD    2   TIME STEP   8
 
 
 CFPM1 CRITERION OF CONVERGENCE:     0.1000000E-05
 CFPM1 MAXIMUM NUMBER OF ITERATIONS:   100
 
 
 CFPM1 RESULTS +++++++++++++++++++++++++++++++++++++++++++++++++++++++
 
 STRESS PERIOD/TIME STEP           2           8
 
NUMBER OF NEWTON RHAPSON ITERATIONS:     3
 
 ------- RESULTS OF FLOW CALCULATION -------
 
NODE# NODE HEAD[M] MATRIX HEAD [M] EXCHANGE [M^3/D]    CADSFLOW            PFPSFLOW         DIRECT RECHARGE        QWELL         FHLQ            CAUCHY         CAUCHY LQ               QLH              QFIX
    1  20.00000      20.00009       -0.7023531E-02       0.000000           0.000000           0.000000        0.000000         0.000000         0.000000         0.000000         0.000000         0.000000    
    2  20.00    FIX  20.00000           0.0000           0.000000           0.000000           0.000000        0.000000         0.000000         0.000000         0.000000         0.000000       -0.1614632    
    3  20.00000      20.00009       -0.2007046E-01       0.000000           0.000000           0.000000        0.000000         0.000000         0.000000         0.000000         0.000000         0.000000    
    4  20.00000      20.00013       -0.2085666E-01       0.000000           0.000000          0.1000000        0.000000         0.000000         0.000000         0.000000         0.000000         0.000000    
    5  20.00000      20.00017       -0.1351258E-01       0.000000           0.000000           0.000000        0.000000         0.000000         0.000000         0.000000         0.000000         0.000000    
 
TUBE  B  E  FLOW          Q [M^3/D]       DIAM.[M]        LEN.[M]        RE         RESIDENCE TIME [D]
   1   1   3   LAMI.         0.00702        0.10000       10.00000        1.15890       11.18238
   2   2   3   TURB.        -0.16146        0.10000       10.00000       26.64193        0.48643
   3   3   4   TURB.        -0.13437        0.10000       10.00000       22.17134        0.58451
   4   4   5   LAMI.        -0.01351        0.10000       10.00000        2.22962        5.81235
 

    BUDGET OF THE PIPE SYSTEM OF TIMESTEP    8 IN STRESS PERIOD    2
------------------------------------------------------------------------

  TOTAL SIMULATION TIME   180.000000000000      S
 
       CUMULATIVE VALUES (L**3)           RATES THIS TIME STEP (L**3/T)

            IN:                               IN:
     CONSTANT HEAD =   0.0000000          CONSTANT HEAD =   0.0000000    
   MATRIX EXCHANGE =   23.340284        MATRIX EXCHANGE =  0.61463236E-01
     PIPE RECHARGE =   38.000000          PIPE RECHARGE =  0.10000000    
       PFP STORAGE =   0.0000000            PFP STORAGE =   0.0000000    

     CUMULATIVE IN =   61.340284               TOTAL IN =  0.16146324    

           OUT:                               OUT:
     CONSTANT HEAD =   61.340284          CONSTANT HEAD =  0.16146323    
   MATRIX EXCHANGE =   0.0000000        MATRIX EXCHANGE =   0.0000000    
     PIPE RECHARGE =   0.0000000          PIPE RECHARGE =   0.0000000    
       PFP STORAGE =   0.0000000            PFP STORAGE =   0.0000000    

    CUMULATIVE OUT =   61.340284              TOTAL OUT =  0.16146323    

          IN - OUT = -0.10598349E-07           IN - OUT =  0.13794979E-08
     PERCENT ERROR =  0.00                PERCENT ERROR =  0.00


 
 ------------------------NODE WATER BUDGET-----------------------
  STRESS PERIOD           2  TIME STEP           8
 TOTAL SIMULATION TIME   180.000000000000     
 
 FLOW TO THE NODE IN M^3/D
 
 NODE   FIXED HEAD     RECHARGE        QWELL  MATRIX EXCH      STORAGE      TUBE_IN     TUBE_OUT         CADS     FHLQ(LQ)       CAUCHY   CAUCHY(LQ)          QLH     IN - OUT
   1     0.0000       0.0000       0.0000      0.70235E-02   0.0000       0.0000     -0.70235E-02   0.0000       0.0000       0.0000       0.0000       0.0000     -0.21622E-09
   2   -0.16146       0.0000       0.0000       0.0000       0.0000      0.16146       0.0000       0.0000       0.0000       0.0000       0.0000       0.0000       0.0000    
   3     0.0000       0.0000       0.0000      0.20070E-01   0.0000      0.14139     -0.16146       0.0000       0.0000       0.0000       0.0000       0.0000      0.16557E-08
   4     0.0000      0.10000       0.0000      0.20857E-01   0.0000      0.13513E-01 -0.13437       0.0000       0.0000       0.0000       0.0000       0.0000     -0.28861E-10
   5     0.0000       0.0000       0.0000      0.13513E-01   0.0000       0.0000     -0.13513E-01   0.0000       0.0000       0.0000       0.0000       0.0000     -0.31168E-10
 
 SOLVING FOR HEAD 
MODFLOW ITER.#  NEWTON-RAPHSON ITER.#   MAXIMUM NODE HEAD CHANGE
         1                   1                  0.0000000000
         1                   2                  0.0000000000
         1                   3                  0.0000000000
     1 CALLS TO PCG ROUTINE FOR TIME STEP   9 IN STRESS PERIOD    2
     1 TOTAL ITERATIONS
MODFLOW ITER.#  NEWTON-RAPHSON ITER.#   MAXIMUM NODE HEAD CHANGE
         1                   1                  0.0000000000
         1                   2                  0.0000000000
         1                   3                  0.0000000000

 NO OUTPUT CONTROL FOR STRESS PERIOD    2   TIME STEP   9
 
 
 CFPM1 CRITERION OF CONVERGENCE:     0.1000000E-05
 CFPM1 MAXIMUM NUMBER OF ITERATIONS:   100
 
 
 CFPM1 RESULTS +++++++++++++++++++++++++++++++++++++++++++++++++++++++
 
 STRESS PERIOD/TIME STEP           2           9
 
NUMBER OF NEWTON RHAPSON ITERATIONS:     3
 
 ------- RESULTS OF FLOW CALCULATION -------
 
NODE# NODE HEAD[M] MATRIX HEAD [M] EXCHANGE [M^3/D]    CADSFLOW            PFPSFLOW         DIRECT RECHARGE        QWELL         FHLQ            CAUCHY         CAUCHY LQ               QLH              QFIX
    1  20.00000      20.00009       -0.7023530E-02       0.000000           0.000000           0.000000        0.000000         0.000000         0.000000         0.000000         0.000000         0.000000    
    2  20.00    FIX  20.00000           0.0000           0.000000           0.000000           0.000000        0.000000         0.000000         0.000000         0.000000         0.000000       -0.1614632    
    3  20.00000      20.00009       -0.2007046E-01       0.000000           0.000000           0.000000        0.000000         0.000000         0.000000         0.000000         0.000000         0.000000    
    4  20.00000      20.00013       -0.2085666E-01       0.000000           0.000000          0.1000000        0.000000         0.000000         0.000000         0.000000         0.000000         0.000000    
    5  20.00000      20.00017       -0.1351258E-01       0.000000           0.000000           0.000000        0.000000         0.000000         0.000000         0.000000         0.000000         0.000000    
 
TUBE  B  E  FLOW          Q [M^3/D]       DIAM.[M]        LEN.[M]        RE         RESIDENCE TIME [D]
   1   1   3   LAMI.         0.00702        0.10000       10.00000        1.15890       11.18239
   2   2   3   TURB.        -0.16146        0.10000       10.00000       26.64193        0.48643
   3   3   4   TURB.        -0.13437        0.10000       10.00000       22.17134        0.58451
   4   4   5   LAMI.        -0.01351        0.10000       10.00000        2.22962        5.81235
 

    BUDGET OF THE PIPE SYSTEM OF TIMESTEP    9 IN STRESS PERIOD    2
------------------------------------------------------------------------

  TOTAL SIMULATION TIME   190.000000000000      S
 
       CUMULATIVE VALUES (L**3)           RATES THIS TIME STEP (L**3/T)

            IN:                               IN:
     CONSTANT HEAD =   0.0000000          CONSTANT HEAD =   0.0000000    
   MATRIX EXCHANGE =   23.954916        MATRIX EXCHANGE =  0.61463230E-01
     PIPE RECHARGE =   39.000000          PIPE RECHARGE =  0.10000000    
       PFP STORAGE =   0.0000000            PFP STORAGE =   0.0000000    

     CUMULATIVE IN =   62.954916               TOTAL IN =  0.16146323    

           OUT:                               OUT:
     CONSTANT HEAD =   62.954916          CONSTANT HEAD =  0.16146323    
   MATRIX EXCHANGE =   0.0000000        MATRIX EXCHANGE =   0.0000000    
     PIPE RECHARGE =   0.0000000          PIPE RECHARGE =   0.0000000    
       PFP STORAGE =   0.0000000            PFP STORAGE =   0.0000000    

    CUMULATIVE OUT =   62.954916              TOTAL OUT =  0.16146323    

          IN - OUT = -0.26097048E-07           IN - OUT = -0.15498700E-08
     PERCENT ERROR =  0.00                PERCENT ERROR =  0.00


 
 ------------------------NODE WATER BUDGET-----------------------
  STRESS PERIOD           2  TIME STEP           9
 TOTAL SIMULATION TIME   190.000000000000     
 
 FLOW TO THE NODE IN M^3/D
 
 NODE   FIXED HEAD     RECHARGE        QWELL  MATRIX EXCH      STORAGE      TUBE_IN     TUBE_OUT         CADS     FHLQ(LQ)       CAUCHY   CAUCHY(LQ)          QLH     IN - OUT
   1     0.0000       0.0000       0.0000      0.70235E-02   0.0000       0.0000     -0.70235E-02   0.0000       0.0000       0.0000       0.0000       0.0000      0.60536E-09
   2   -0.16146       0.0000       0.0000       0.0000       0.0000      0.16146       0.0000       0.0000       0.0000       0.0000       0.0000       0.0000       0.0000    
   3     0.0000       0.0000       0.0000      0.20070E-01   0.0000      0.14139     -0.16146       0.0000       0.0000       0.0000       0.0000       0.0000     -0.25595E-08
   4     0.0000      0.10000       0.0000      0.20857E-01   0.0000      0.13513E-01 -0.13437       0.0000       0.0000       0.0000       0.0000       0.0000      0.35124E-09
   5     0.0000       0.0000       0.0000      0.13513E-01   0.0000       0.0000     -0.13513E-01   0.0000       0.0000       0.0000       0.0000       0.0000      0.53014E-10
 
 SOLVING FOR HEAD 
MODFLOW ITER.#  NEWTON-RAPHSON ITER.#   MAXIMUM NODE HEAD CHANGE
         1                   1                  0.0000000000
         1                   2                  0.0000000000
         1                   3                  0.0000000000
     1 CALLS TO PCG ROUTINE FOR TIME STEP  10 IN STRESS PERIOD    2
     1 TOTAL ITERATIONS

 MAXIMUM HEAD CHANGE FOR EACH ITERATION (1 INDICATES THE FIRST INNER ITERATION):

    HEAD CHANGE    HEAD CHANGE    HEAD CHANGE    HEAD CHANGE    HEAD CHANGE 
   LAYER,ROW,COL  LAYER,ROW,COL  LAYER,ROW,COL  LAYER,ROW,COL  LAYER,ROW,COL
 ---------------------------------------------------------------------------
  1 -0.2752E-10
   (  3,  1,  4)

 MAXIMUM RESIDUAL FOR EACH ITERATION (1 INDICATES THE FIRST INNER ITERATION):

    RESIDUAL       RESIDUAL       RESIDUAL       RESIDUAL       RESIDUAL    
   LAYER,ROW,COL  LAYER,ROW,COL  LAYER,ROW,COL  LAYER,ROW,COL  LAYER,ROW,COL
 ---------------------------------------------------------------------------
  1  0.1772E-07
   (  3,  2,  3)


MODFLOW ITER.#  NEWTON-RAPHSON ITER.#   MAXIMUM NODE HEAD CHANGE
         1                   1                  0.0000000000
         1                   2                  0.0000000000
         1                   3                  0.0000000000

 NO OUTPUT CONTROL FOR STRESS PERIOD    2   TIME STEP  10
 
 
 CFPM1 CRITERION OF CONVERGENCE:     0.1000000E-05
 CFPM1 MAXIMUM NUMBER OF ITERATIONS:   100
 
 
 CFPM1 RESULTS +++++++++++++++++++++++++++++++++++++++++++++++++++++++
 
 STRESS PERIOD/TIME STEP           2          10
 
NUMBER OF NEWTON RHAPSON ITERATIONS:     3
 
 ------- RESULTS OF FLOW CALCULATION -------
 
NODE# NODE HEAD[M] MATRIX HEAD [M] EXCHANGE [M^3/D]    CADSFLOW            PFPSFLOW         DIRECT RECHARGE        QWELL         FHLQ            CAUCHY         CAUCHY LQ               QLH              QFIX
    1  20.00000      20.00009       -0.7023530E-02       0.000000           0.000000           0.000000        0.000000         0.000000         0.000000         0.000000         0.000000         0.000000    
    2  20.00    FIX  20.00000           0.0000           0.000000           0.000000           0.000000        0.000000         0.000000         0.000000         0.000000         0.000000       -0.1614632    
    3  20.00000      20.00009       -0.2007046E-01       0.000000           0.000000           0.000000        0.000000         0.000000         0.000000         0.000000         0.000000         0.000000    
    4  20.00000      20.00013       -0.2085666E-01       0.000000           0.000000          0.1000000        0.000000         0.000000         0.000000         0.000000         0.000000         0.000000    
    5  20.00000      20.00017       -0.1351258E-01       0.000000           0.000000           0.000000        0.000000         0.000000         0.000000         0.000000         0.000000         0.000000    
 
TUBE  B  E  FLOW          Q [M^3/D]       DIAM.[M]        LEN.[M]        RE         RESIDENCE TIME [D]
   1   1   3   LAMI.         0.00702        0.10000       10.00000        1.15890       11.18239
   2   2   3   TURB.        -0.16146        0.10000       10.00000       26.64193        0.48643
   3   3   4   TURB.        -0.13437        0.10000       10.00000       22.17134        0.58451
   4   4   5   LAMI.        -0.01351        0.10000       10.00000        2.22962        5.81235
 

    BUDGET OF THE PIPE SYSTEM OF TIMESTEP   10 IN STRESS PERIOD    2
------------------------------------------------------------------------

  TOTAL SIMULATION TIME   200.000000000000      S
 
       CUMULATIVE VALUES (L**3)           RATES THIS TIME STEP (L**3/T)

            IN:                               IN:
     CONSTANT HEAD =   0.0000000          CONSTANT HEAD =   0.0000000    
   MATRIX EXCHANGE =   24.569548        MATRIX EXCHANGE =  0.61463227E-01
     PIPE RECHARGE =   40.000000          PIPE RECHARGE =  0.10000000    
       PFP STORAGE =   0.0000000            PFP STORAGE =   0.0000000    

     CUMULATIVE IN =   64.569548               TOTAL IN =  0.16146323    

           OUT:                               OUT:
     CONSTANT HEAD =   64.569549          CONSTANT HEAD =  0.16146323    
   MATRIX EXCHANGE =   0.0000000        MATRIX EXCHANGE =   0.0000000    
     PIPE RECHARGE =   0.0000000          PIPE RECHARGE =   0.0000000    
       PFP STORAGE =   0.0000000            PFP STORAGE =   0.0000000    

    CUMULATIVE OUT =   64.569549              TOTAL OUT =  0.16146323    

          IN - OUT = -0.38340634E-07           IN - OUT = -0.12243589E-08
     PERCENT ERROR =  0.00                PERCENT ERROR =  0.00


 
 ------------------------NODE WATER BUDGET-----------------------
  STRESS PERIOD           2  TIME STEP          10
 TOTAL SIMULATION TIME   200.000000000000     
 
 FLOW TO THE NODE IN M^3/D
 
 NODE   FIXED HEAD     RECHARGE        QWELL  MATRIX EXCH      STORAGE      TUBE_IN     TUBE_OUT         CADS     FHLQ(LQ)       CAUCHY   CAUCHY(LQ)          QLH     IN - OUT
   1     0.0000       0.0000       0.0000      0.70235E-02   0.0000       0.0000     -0.70235E-02   0.0000       0.0000       0.0000       0.0000       0.0000      0.21192E-09
   2   -0.16146       0.0000       0.0000       0.0000       0.0000      0.16146       0.0000       0.0000       0.0000       0.0000       0.0000       0.0000       0.0000    
   3     0.0000       0.0000       0.0000      0.20070E-01   0.0000      0.14139     -0.16146       0.0000       0.0000       0.0000       0.0000       0.0000     -0.42245E-08
   4     0.0000      0.10000       0.0000      0.20857E-01   0.0000      0.13513E-01 -0.13437       0.0000       0.0000       0.0000       0.0000       0.0000      0.34883E-08
   5     0.0000       0.0000       0.0000      0.13513E-01   0.0000       0.0000     -0.13513E-01   0.0000       0.0000       0.0000       0.0000       0.0000     -0.70009E-09
1
  VOLUMETRIC BUDGET FOR ENTIRE MODEL AT END OF TIME STEP 10 IN STRESS PERIOD   2
  ------------------------------------------------------------------------------

     CUMULATIVE VOLUMES      L**3       RATES FOR THIS TIME STEP      L**3/T
     ------------------                 ------------------------

           IN:                                      IN:
           ---                                      ---
             STORAGE =       1.9335E-05               STORAGE =       6.6710E-14
       CONSTANT HEAD =           0.0000         CONSTANT HEAD =           0.0000
            RECHARGE =         440.0000              RECHARGE =           1.1000
               PIPES =           0.0000                 PIPES =           0.0000

            TOTAL IN =         440.0000              TOTAL IN =           1.1000

          OUT:                                     OUT:
          ----                                     ----
             STORAGE =       2.9002E-05               STORAGE =           0.0000
       CONSTANT HEAD =         415.4305         CONSTANT HEAD =           1.0385
            RECHARGE =           0.0000              RECHARGE =           0.0000
               PIPES =          24.5695                 PIPES =       6.1463E-02

           TOTAL OUT =         440.0001             TOTAL OUT =           1.1000

            IN - OUT =      -5.1823E-05              IN - OUT =      -1.2985E-07

 PERCENT DISCREPANCY =           0.00     PERCENT DISCREPANCY =           0.00






          TIME SUMMARY AT END OF TIME STEP  10 IN STRESS PERIOD    2
                    SECONDS     MINUTES      HOURS       DAYS        YEARS
                    -----------------------------------------------------------
   TIME STEP LENGTH 8.64000E+05  14400.      240.00      10.000     2.73785E-02
 STRESS PERIOD TIME 8.64000E+06 1.44000E+05  2400.0      100.00     0.27379    
         TOTAL TIME 1.72800E+07 2.88000E+05  4800.0      200.00     0.54757    
1
1
                            STRESS PERIOD NO.    3, LENGTH =   100.0000    
                            -----------------------------------------------

                              NUMBER OF TIME STEPS =    10

                               MULTIPLIER FOR DELT =     1.000

                            INITIAL TIME STEP SIZE =   10.00000    



                           RECHARGE
 READING ON UNIT   19 WITH FORMAT: (4E15.6)            
 
 CFP1RCH1RP SUBROUTINE READING FROM UNIT           53
  READING INPUT USED TO PARTICIAN RECHARGE
 0.0    0.0    0.0    1.0    0.0   
 
 SOLVING FOR HEAD 
MODFLOW ITER.#  NEWTON-RAPHSON ITER.#   MAXIMUM NODE HEAD CHANGE
         1                   1                  0.0000001973
         1                   2                  0.0000000303
         1                   3                  0.0000000004
MODFLOW ITER.#  NEWTON-RAPHSON ITER.#   MAXIMUM NODE HEAD CHANGE
         2                   1                  0.0000001827
         2                   2                  0.0000000070
         2                   3                  0.0000000000


     2 CALLS TO PCG ROUTINE FOR TIME STEP   1 IN STRESS PERIOD    3
    11 TOTAL ITERATIONS
MODFLOW ITER.#  NEWTON-RAPHSON ITER.#   MAXIMUM NODE HEAD CHANGE
         2                   1                  0.0000000000
         2                   2                  0.0000000000
         2                   3                  0.0000000000

 NO OUTPUT CONTROL FOR STRESS PERIOD    3   TIME STEP   1
 
 
 CFPM1 CRITERION OF CONVERGENCE:     0.1000000E-05
 CFPM1 MAXIMUM NUMBER OF ITERATIONS:   100
 
 
 CFPM1 RESULTS +++++++++++++++++++++++++++++++++++++++++++++++++++++++
 
 STRESS PERIOD/TIME STEP           3           1
 
NUMBER OF NEWTON RHAPSON ITERATIONS:     3
 
 ------- RESULTS OF FLOW CALCULATION -------
 
NODE# NODE HEAD[M] MATRIX HEAD [M] EXCHANGE [M^3/D]    CADSFLOW            PFPSFLOW         DIRECT RECHARGE        QWELL         FHLQ            CAUCHY         CAUCHY LQ               QLH              QFIX
    1  20.00000      20.00018       -0.1404077E-01       0.000000           0.000000           0.000000        0.000000         0.000000         0.000000         0.000000         0.000000         0.000000    
    2  20.00    FIX  20.00000           0.0000           0.000000           0.000000           0.000000        0.000000         0.000000         0.000000         0.000000         0.000000       -0.3228705    
    3  20.00000      20.00017       -0.4012243E-01       0.000000           0.000000           0.000000        0.000000         0.000000         0.000000         0.000000         0.000000         0.000000    
    4  20.00000      20.00027       -0.4169249E-01       0.000000           0.000000          0.2000000        0.000000         0.000000         0.000000         0.000000         0.000000         0.000000    
    5  20.00000      20.00034       -0.2701479E-01       0.000000           0.000000           0.000000        0.000000         0.000000         0.000000         0.000000         0.000000         0.000000    
 
TUBE  B  E  FLOW          Q [M^3/D]       DIAM.[M]        LEN.[M]        RE         RESIDENCE TIME [D]
   1   1   3   LAMI.         0.01404        0.10000       10.00000        2.31677        5.59370
   2   2   3   TURB.        -0.32287        0.10000       10.00000       53.27462        0.24325
   3   3   4   TURB.        -0.26871        0.10000       10.00000       44.33752        0.29229
   4   4   5   LAMI.        -0.02701        0.10000       10.00000        4.45752        2.90729
 

    BUDGET OF THE PIPE SYSTEM OF TIMESTEP    1 IN STRESS PERIOD    3
------------------------------------------------------------------------

  TOTAL SIMULATION TIME   210.000000000000      S
 
       CUMULATIVE VALUES (L**3)           RATES THIS TIME STEP (L**3/T)

            IN:                               IN:
     CONSTANT HEAD =   0.0000000          CONSTANT HEAD =   0.0000000    
   MATRIX EXCHANGE =   25.798253        MATRIX EXCHANGE =  0.12287047    
     PIPE RECHARGE =   42.000000          PIPE RECHARGE =  0.20000000    
       PFP STORAGE =   0.0000000            PFP STORAGE =   0.0000000    

     CUMULATIVE IN =   67.798253               TOTAL IN =  0.32287047    

           OUT:                               OUT:
     CONSTANT HEAD =   67.798253          CONSTANT HEAD =  0.32287047    
   MATRIX EXCHANGE =   0.0000000        MATRIX EXCHANGE =   0.0000000    
     PIPE RECHARGE =   0.0000000          PIPE RECHARGE =   0.0000000    
       PFP STORAGE =   0.0000000            PFP STORAGE =   0.0000000    

    CUMULATIVE OUT =   67.798253              TOTAL OUT =  0.32287047    

          IN - OUT = -0.40093365E-07           IN - OUT = -0.17527231E-09
     PERCENT ERROR =  0.00                PERCENT ERROR =  0.00


 
 ------------------------NODE WATER BUDGET-----------------------
  STRESS PERIOD           3  TIME STEP           1
 TOTAL SIMULATION TIME   210.000000000000     
 
 FLOW TO THE NODE IN M^3/D
 
 NODE   FIXED HEAD     RECHARGE        QWELL  MATRIX EXCH      STORAGE      TUBE_IN     TUBE_OUT         CADS     FHLQ(LQ)       CAUCHY   CAUCHY(LQ)          QLH     IN - OUT
   1     0.0000       0.0000       0.0000      0.14041E-01   0.0000       0.0000     -0.14041E-01   0.0000       0.0000       0.0000       0.0000       0.0000     -0.18941E-09
   2   -0.32287       0.0000       0.0000       0.0000       0.0000      0.32287       0.0000       0.0000       0.0000       0.0000       0.0000       0.0000       0.0000    
   3     0.0000       0.0000       0.0000      0.40122E-01   0.0000      0.28275     -0.32287       0.0000       0.0000       0.0000       0.0000       0.0000     -0.15555E-09
   4     0.0000      0.20000       0.0000      0.41692E-01   0.0000      0.27015E-01 -0.26871       0.0000       0.0000       0.0000       0.0000       0.0000     -0.59522E-10
   5     0.0000       0.0000       0.0000      0.27015E-01   0.0000       0.0000     -0.27015E-01   0.0000       0.0000       0.0000       0.0000       0.0000      0.22921E-09
 
 SOLVING FOR HEAD 
MODFLOW ITER.#  NEWTON-RAPHSON ITER.#   MAXIMUM NODE HEAD CHANGE
         1                   1                  0.0000000000
         1                   2                  0.0000000000
         1                   3                  0.0000000000
     1 CALLS TO PCG ROUTINE FOR TIME STEP   2 IN STRESS PERIOD    3
     1 TOTAL ITERATIONS
MODFLOW ITER.#  NEWTON-RAPHSON ITER.#   MAXIMUM NODE HEAD CHANGE
         1                   1                  0.0000000000
         1                   2                  0.0000000000
         1                   3                  0.0000000000

 NO OUTPUT CONTROL FOR STRESS PERIOD    3   TIME STEP   2
 
 
 CFPM1 CRITERION OF CONVERGENCE:     0.1000000E-05
 CFPM1 MAXIMUM NUMBER OF ITERATIONS:   100
 
 
 CFPM1 RESULTS +++++++++++++++++++++++++++++++++++++++++++++++++++++++
 
 STRESS PERIOD/TIME STEP           3           2
 
NUMBER OF NEWTON RHAPSON ITERATIONS:     3
 
 ------- RESULTS OF FLOW CALCULATION -------
 
NODE# NODE HEAD[M] MATRIX HEAD [M] EXCHANGE [M^3/D]    CADSFLOW            PFPSFLOW         DIRECT RECHARGE        QWELL         FHLQ            CAUCHY         CAUCHY LQ               QLH              QFIX
    1  20.00000      20.00018       -0.1404085E-01       0.000000           0.000000           0.000000        0.000000         0.000000         0.000000         0.000000         0.000000         0.000000    
    2  20.00    FIX  20.00000           0.0000           0.000000           0.000000           0.000000        0.000000         0.000000         0.000000         0.000000         0.000000       -0.3228706    
    3  20.00000      20.00017       -0.4012268E-01       0.000000           0.000000           0.000000        0.000000         0.000000         0.000000         0.000000         0.000000         0.000000    
    4  20.00000      20.00027       -0.4169237E-01       0.000000           0.000000          0.2000000        0.000000         0.000000         0.000000         0.000000         0.000000         0.000000    
    5  20.00000      20.00034       -0.2701469E-01       0.000000           0.000000           0.000000        0.000000         0.000000         0.000000         0.000000         0.000000         0.000000    
 
TUBE  B  E  FLOW          Q [M^3/D]       DIAM.[M]        LEN.[M]        RE         RESIDENCE TIME [D]
   1   1   3   LAMI.         0.01404        0.10000       10.00000        2.31678        5.59366
   2   2   3   TURB.        -0.32287        0.10000       10.00000       53.27464        0.24325
   3   3   4   TURB.        -0.26871        0.10000       10.00000       44.33749        0.29229
   4   4   5   LAMI.        -0.02701        0.10000       10.00000        4.45751        2.90730
 

    BUDGET OF THE PIPE SYSTEM OF TIMESTEP    2 IN STRESS PERIOD    3
------------------------------------------------------------------------

  TOTAL SIMULATION TIME   220.000000000000      S
 
       CUMULATIVE VALUES (L**3)           RATES THIS TIME STEP (L**3/T)

            IN:                               IN:
     CONSTANT HEAD =   0.0000000          CONSTANT HEAD =   0.0000000    
   MATRIX EXCHANGE =   27.026959        MATRIX EXCHANGE =  0.12287060    
     PIPE RECHARGE =   44.000000          PIPE RECHARGE =  0.20000000    
       PFP STORAGE =   0.0000000            PFP STORAGE =   0.0000000    

     CUMULATIVE IN =   71.026959               TOTAL IN =  0.32287060    

           OUT:                               OUT:
     CONSTANT HEAD =   71.026959          CONSTANT HEAD =  0.32287060    
   MATRIX EXCHANGE =   0.0000000        MATRIX EXCHANGE =   0.0000000    
     PIPE RECHARGE =   0.0000000          PIPE RECHARGE =   0.0000000    
       PFP STORAGE =   0.0000000            PFP STORAGE =   0.0000000    

    CUMULATIVE OUT =   71.026959              TOTAL OUT =  0.32287060    

          IN - OUT = -0.33734047E-07           IN - OUT =  0.63593183E-09
     PERCENT ERROR =  0.00                PERCENT ERROR =  0.00


 
 ------------------------NODE WATER BUDGET-----------------------
  STRESS PERIOD           3  TIME STEP           2
 TOTAL SIMULATION TIME   220.000000000000     
 
 FLOW TO THE NODE IN M^3/D
 
 NODE   FIXED HEAD     RECHARGE        QWELL  MATRIX EXCH      STORAGE      TUBE_IN     TUBE_OUT         CADS     FHLQ(LQ)       CAUCHY   CAUCHY(LQ)          QLH     IN - OUT
   1     0.0000       0.0000       0.0000      0.14041E-01   0.0000       0.0000     -0.14041E-01   0.0000       0.0000       0.0000       0.0000       0.0000     -0.39272E-09
   2   -0.32287       0.0000       0.0000       0.0000       0.0000      0.32287       0.0000       0.0000       0.0000       0.0000       0.0000       0.0000       0.0000    
   3     0.0000       0.0000       0.0000      0.40123E-01   0.0000      0.28275     -0.32287       0.0000       0.0000       0.0000       0.0000       0.0000      0.95321E-09
   4     0.0000      0.20000       0.0000      0.41692E-01   0.0000      0.27015E-01 -0.26871       0.0000       0.0000       0.0000       0.0000       0.0000      0.63061E-09
   5     0.0000       0.0000       0.0000      0.27015E-01   0.0000       0.0000     -0.27015E-01   0.0000       0.0000       0.0000       0.0000       0.0000     -0.55517E-09
 
 SOLVING FOR HEAD 
MODFLOW ITER.#  NEWTON-RAPHSON ITER.#   MAXIMUM NODE HEAD CHANGE
         1                   1                  0.0000000000
         1                   2                  0.0000000000
         1                   3                  0.0000000000
     1 CALLS TO PCG ROUTINE FOR TIME STEP   3 IN STRESS PERIOD    3
     1 TOTAL ITERATIONS
MODFLOW ITER.#  NEWTON-RAPHSON ITER.#   MAXIMUM NODE HEAD CHANGE
         1                   1                  0.0000000000
         1                   2                  0.0000000000
         1                   3                  0.0000000000

 NO OUTPUT CONTROL FOR STRESS PERIOD    3   TIME STEP   3
 
 
 CFPM1 CRITERION OF CONVERGENCE:     0.1000000E-05
 CFPM1 MAXIMUM NUMBER OF ITERATIONS:   100
 
 
 CFPM1 RESULTS +++++++++++++++++++++++++++++++++++++++++++++++++++++++
 
 STRESS PERIOD/TIME STEP           3           3
 
NUMBER OF NEWTON RHAPSON ITERATIONS:     3
 
 ------- RESULTS OF FLOW CALCULATION -------
 
NODE# NODE HEAD[M] MATRIX HEAD [M] EXCHANGE [M^3/D]    CADSFLOW            PFPSFLOW         DIRECT RECHARGE        QWELL         FHLQ            CAUCHY         CAUCHY LQ               QLH              QFIX
    1  20.00000      20.00018       -0.1404091E-01       0.000000           0.000000           0.000000        0.000000         0.000000         0.000000         0.000000         0.000000         0.000000    
    2  20.00    FIX  20.00000           0.0000           0.000000           0.000000           0.000000        0.000000         0.000000         0.000000         0.000000         0.000000       -0.3228712    
    3  20.00000      20.00017       -0.4012286E-01       0.000000           0.000000           0.000000        0.000000         0.000000         0.000000         0.000000         0.000000         0.000000    
    4  20.00000      20.00027       -0.4169260E-01       0.000000           0.000000          0.2000000        0.000000         0.000000         0.000000         0.000000         0.000000         0.000000    
    5  20.00000      20.00034       -0.2701482E-01       0.000000           0.000000           0.000000        0.000000         0.000000         0.000000         0.000000         0.000000         0.000000    
 
TUBE  B  E  FLOW          Q [M^3/D]       DIAM.[M]        LEN.[M]        RE         RESIDENCE TIME [D]
   1   1   3   LAMI.         0.01404        0.10000       10.00000        2.31679        5.59364
   2   2   3   TURB.        -0.32287        0.10000       10.00000       53.27474        0.24325
   3   3   4   TURB.        -0.26871        0.10000       10.00000       44.33755        0.29229
   4   4   5   LAMI.        -0.02701        0.10000       10.00000        4.45753        2.90729
 

    BUDGET OF THE PIPE SYSTEM OF TIMESTEP    3 IN STRESS PERIOD    3
------------------------------------------------------------------------

  TOTAL SIMULATION TIME   230.000000000000      S
 
       CUMULATIVE VALUES (L**3)           RATES THIS TIME STEP (L**3/T)

            IN:                               IN:
     CONSTANT HEAD =   0.0000000          CONSTANT HEAD =   0.0000000    
   MATRIX EXCHANGE =   28.255671        MATRIX EXCHANGE =  0.12287120    
     PIPE RECHARGE =   46.000000          PIPE RECHARGE =  0.20000000    
       PFP STORAGE =   0.0000000            PFP STORAGE =   0.0000000    

     CUMULATIVE IN =   74.255671               TOTAL IN =  0.32287120    

           OUT:                               OUT:
     CONSTANT HEAD =   74.255671          CONSTANT HEAD =  0.32287120    
   MATRIX EXCHANGE =   0.0000000        MATRIX EXCHANGE =   0.0000000    
     PIPE RECHARGE =   0.0000000          PIPE RECHARGE =   0.0000000    
       PFP STORAGE =   0.0000000            PFP STORAGE =   0.0000000    

    CUMULATIVE OUT =   74.255671              TOTAL OUT =  0.32287120    

          IN - OUT = -0.32279569E-07           IN - OUT =  0.14544810E-09
     PERCENT ERROR =  0.00                PERCENT ERROR =  0.00


 
 ------------------------NODE WATER BUDGET-----------------------
  STRESS PERIOD           3  TIME STEP           3
 TOTAL SIMULATION TIME   230.000000000000     
 
 FLOW TO THE NODE IN M^3/D
 
 NODE   FIXED HEAD     RECHARGE        QWELL  MATRIX EXCH      STORAGE      TUBE_IN     TUBE_OUT         CADS     FHLQ(LQ)       CAUCHY   CAUCHY(LQ)          QLH     IN - OUT
   1     0.0000       0.0000       0.0000      0.14041E-01   0.0000       0.0000     -0.14041E-01   0.0000       0.0000       0.0000       0.0000       0.0000     -0.57964E-10
   2   -0.32287       0.0000       0.0000       0.0000       0.0000      0.32287       0.0000       0.0000       0.0000       0.0000       0.0000       0.0000       0.0000    
   3     0.0000       0.0000       0.0000      0.40123E-01   0.0000      0.28275     -0.32287       0.0000       0.0000       0.0000       0.0000       0.0000      0.95825E-09
   4     0.0000      0.20000       0.0000      0.41693E-01   0.0000      0.27015E-01 -0.26871       0.0000       0.0000       0.0000       0.0000       0.0000     -0.12629E-08
   5     0.0000       0.0000       0.0000      0.27015E-01   0.0000       0.0000     -0.27015E-01   0.0000       0.0000       0.0000       0.0000       0.0000      0.50807E-09
 
 SOLVING FOR HEAD 
MODFLOW ITER.#  NEWTON-RAPHSON ITER.#   MAXIMUM NODE HEAD CHANGE
         1                   1                  0.0000000000
         1                   2                  0.0000000000
         1                   3                  0.0000000000
     1 CALLS TO PCG ROUTINE FOR TIME STEP   4 IN STRESS PERIOD    3
     1 TOTAL ITERATIONS
MODFLOW ITER.#  NEWTON-RAPHSON ITER.#   MAXIMUM NODE HEAD CHANGE
         1                   1                  0.0000000000
         1                   2                  0.0000000000
         1                   3                  0.0000000000

 NO OUTPUT CONTROL FOR STRESS PERIOD    3   TIME STEP   4
 
 
 CFPM1 CRITERION OF CONVERGENCE:     0.1000000E-05
 CFPM1 MAXIMUM NUMBER OF ITERATIONS:   100
 
 
 CFPM1 RESULTS +++++++++++++++++++++++++++++++++++++++++++++++++++++++
 
 STRESS PERIOD/TIME STEP           3           4
 
NUMBER OF NEWTON RHAPSON ITERATIONS:     3
 
 ------- RESULTS OF FLOW CALCULATION -------
 
NODE# NODE HEAD[M] MATRIX HEAD [M] EXCHANGE [M^3/D]    CADSFLOW            PFPSFLOW         DIRECT RECHARGE        QWELL         FHLQ            CAUCHY         CAUCHY LQ               QLH              QFIX
    1  20.00000      20.00018       -0.1404093E-01       0.000000           0.000000           0.000000        0.000000         0.000000         0.000000         0.000000         0.000000         0.000000    
    2  20.00    FIX  20.00000           0.0000           0.000000           0.000000           0.000000        0.000000         0.000000         0.000000         0.000000         0.000000       -0.3228713    
    3  20.00000      20.00017       -0.4012294E-01       0.000000           0.000000           0.000000        0.000000         0.000000         0.000000         0.000000         0.000000         0.000000    
    4  20.00000      20.00027       -0.4169262E-01       0.000000           0.000000          0.2000000        0.000000         0.000000         0.000000         0.000000         0.000000         0.000000    
    5  20.00000      20.00034       -0.2701483E-01       0.000000           0.000000           0.000000        0.000000         0.000000         0.000000         0.000000         0.000000         0.000000    
 
TUBE  B  E  FLOW          Q [M^3/D]       DIAM.[M]        LEN.[M]        RE         RESIDENCE TIME [D]
   1   1   3   LAMI.         0.01404        0.10000       10.00000        2.31680        5.59363
   2   2   3   TURB.        -0.32287        0.10000       10.00000       53.27476        0.24325
   3   3   4   TURB.        -0.26871        0.10000       10.00000       44.33755        0.29229
   4   4   5   LAMI.        -0.02701        0.10000       10.00000        4.45753        2.90729
 

    BUDGET OF THE PIPE SYSTEM OF TIMESTEP    4 IN STRESS PERIOD    3
------------------------------------------------------------------------

  TOTAL SIMULATION TIME   240.000000000000      S
 
       CUMULATIVE VALUES (L**3)           RATES THIS TIME STEP (L**3/T)

            IN:                               IN:
     CONSTANT HEAD =   0.0000000          CONSTANT HEAD =   0.0000000    
   MATRIX EXCHANGE =   29.484384        MATRIX EXCHANGE =  0.12287132    
     PIPE RECHARGE =   48.000000          PIPE RECHARGE =  0.20000000    
       PFP STORAGE =   0.0000000            PFP STORAGE =   0.0000000    

     CUMULATIVE IN =   77.484384               TOTAL IN =  0.32287132    

           OUT:                               OUT:
     CONSTANT HEAD =   77.484384          CONSTANT HEAD =  0.32287132    
   MATRIX EXCHANGE =   0.0000000        MATRIX EXCHANGE =   0.0000000    
     PIPE RECHARGE =   0.0000000          PIPE RECHARGE =   0.0000000    
       PFP STORAGE =   0.0000000            PFP STORAGE =   0.0000000    

    CUMULATIVE OUT =   77.484384              TOTAL OUT =  0.32287132    

          IN - OUT = -0.36813073E-07           IN - OUT = -0.45335126E-09
     PERCENT ERROR =  0.00                PERCENT ERROR =  0.00


 
 ------------------------NODE WATER BUDGET-----------------------
  STRESS PERIOD           3  TIME STEP           4
 TOTAL SIMULATION TIME   240.000000000000     
 
 FLOW TO THE NODE IN M^3/D
 
 NODE   FIXED HEAD     RECHARGE        QWELL  MATRIX EXCH      STORAGE      TUBE_IN     TUBE_OUT         CADS     FHLQ(LQ)       CAUCHY   CAUCHY(LQ)          QLH     IN - OUT
   1     0.0000       0.0000       0.0000      0.14041E-01   0.0000       0.0000     -0.14041E-01   0.0000       0.0000       0.0000       0.0000       0.0000     -0.24150E-09
   2   -0.32287       0.0000       0.0000       0.0000       0.0000      0.32287       0.0000       0.0000       0.0000       0.0000       0.0000       0.0000       0.0000    
   3     0.0000       0.0000       0.0000      0.40123E-01   0.0000      0.28275     -0.32287       0.0000       0.0000       0.0000       0.0000       0.0000     -0.82592E-09
   4     0.0000      0.20000       0.0000      0.41693E-01   0.0000      0.27015E-01 -0.26871       0.0000       0.0000       0.0000       0.0000       0.0000      0.29860E-09
   5     0.0000       0.0000       0.0000      0.27015E-01   0.0000       0.0000     -0.27015E-01   0.0000       0.0000       0.0000       0.0000       0.0000      0.31547E-09
 
 SOLVING FOR HEAD 
MODFLOW ITER.#  NEWTON-RAPHSON ITER.#   MAXIMUM NODE HEAD CHANGE
         1                   1                  0.0000000000
         1                   2                  0.0000000000
         1                   3                  0.0000000000
     1 CALLS TO PCG ROUTINE FOR TIME STEP   5 IN STRESS PERIOD    3
     1 TOTAL ITERATIONS

 MAXIMUM HEAD CHANGE FOR EACH ITERATION (1 INDICATES THE FIRST INNER ITERATION):

    HEAD CHANGE    HEAD CHANGE    HEAD CHANGE    HEAD CHANGE    HEAD CHANGE 
   LAYER,ROW,COL  LAYER,ROW,COL  LAYER,ROW,COL  LAYER,ROW,COL  LAYER,ROW,COL
 ---------------------------------------------------------------------------
  1  0.4418E-09
   (  3,  3,  3)

 MAXIMUM RESIDUAL FOR EACH ITERATION (1 INDICATES THE FIRST INNER ITERATION):

    RESIDUAL       RESIDUAL       RESIDUAL       RESIDUAL       RESIDUAL    
   LAYER,ROW,COL  LAYER,ROW,COL  LAYER,ROW,COL  LAYER,ROW,COL  LAYER,ROW,COL
 ---------------------------------------------------------------------------
  1 -0.4933E-06
   (  1,  3,  2)


MODFLOW ITER.#  NEWTON-RAPHSON ITER.#   MAXIMUM NODE HEAD CHANGE
         1                   1                  0.0000000000
         1                   2                  0.0000000000
         1                   3                  0.0000000000

 NO OUTPUT CONTROL FOR STRESS PERIOD    3   TIME STEP   5
 
 
 CFPM1 CRITERION OF CONVERGENCE:     0.1000000E-05
 CFPM1 MAXIMUM NUMBER OF ITERATIONS:   100
 
 
 CFPM1 RESULTS +++++++++++++++++++++++++++++++++++++++++++++++++++++++
 
 STRESS PERIOD/TIME STEP           3           5
 
NUMBER OF NEWTON RHAPSON ITERATIONS:     3
 
 ------- RESULTS OF FLOW CALCULATION -------
 
NODE# NODE HEAD[M] MATRIX HEAD [M] EXCHANGE [M^3/D]    CADSFLOW            PFPSFLOW         DIRECT RECHARGE        QWELL         FHLQ            CAUCHY         CAUCHY LQ               QLH              QFIX
    1  20.00000      20.00018       -0.1404095E-01       0.000000           0.000000           0.000000        0.000000         0.000000         0.000000         0.000000         0.000000         0.000000    
    2  20.00    FIX  20.00000           0.0000           0.000000           0.000000           0.000000        0.000000         0.000000         0.000000         0.000000         0.000000       -0.3228715    
    3  20.00000      20.00017       -0.4012300E-01       0.000000           0.000000           0.000000        0.000000         0.000000         0.000000         0.000000         0.000000         0.000000    
    4  20.00000      20.00027       -0.4169268E-01       0.000000           0.000000          0.2000000        0.000000         0.000000         0.000000         0.000000         0.000000         0.000000    
    5  20.00000      20.00034       -0.2701486E-01       0.000000           0.000000           0.000000        0.000000         0.000000         0.000000         0.000000         0.000000         0.000000    
 
TUBE  B  E  FLOW          Q [M^3/D]       DIAM.[M]        LEN.[M]        RE         RESIDENCE TIME [D]
   1   1   3   LAMI.         0.01404        0.10000       10.00000        2.31680        5.59362
   2   2   3   TURB.        -0.32287        0.10000       10.00000       53.27479        0.24325
   3   3   4   TURB.        -0.26871        0.10000       10.00000       44.33757        0.29229
   4   4   5   LAMI.        -0.02701        0.10000       10.00000        4.45753        2.90728
 

    BUDGET OF THE PIPE SYSTEM OF TIMESTEP    5 IN STRESS PERIOD    3
------------------------------------------------------------------------

  TOTAL SIMULATION TIME   250.000000000000      S
 
       CUMULATIVE VALUES (L**3)           RATES THIS TIME STEP (L**3/T)

            IN:                               IN:
     CONSTANT HEAD =   0.0000000          CONSTANT HEAD =   0.0000000    
   MATRIX EXCHANGE =   30.713099        MATRIX EXCHANGE =  0.12287150    
     PIPE RECHARGE =   50.000000          PIPE RECHARGE =  0.20000000    
       PFP STORAGE =   0.0000000            PFP STORAGE =   0.0000000    

     CUMULATIVE IN =   80.713099               TOTAL IN =  0.32287150    

           OUT:                               OUT:
     CONSTANT HEAD =   80.713099          CONSTANT HEAD =  0.32287149    
   MATRIX EXCHANGE =   0.0000000        MATRIX EXCHANGE =   0.0000000    
     PIPE RECHARGE =   0.0000000          PIPE RECHARGE =   0.0000000    
       PFP STORAGE =   0.0000000            PFP STORAGE =   0.0000000    

    CUMULATIVE OUT =   80.713099              TOTAL OUT =  0.32287149    

          IN - OUT = -0.25279800E-07           IN - OUT =  0.11533279E-08
     PERCENT ERROR =  0.00                PERCENT ERROR =  0.00


 
 ------------------------NODE WATER BUDGET-----------------------
  STRESS PERIOD           3  TIME STEP           5
 TOTAL SIMULATION TIME   250.000000000000     
 
 FLOW TO THE NODE IN M^3/D
 
 NODE   FIXED HEAD     RECHARGE        QWELL  MATRIX EXCH      STORAGE      TUBE_IN     TUBE_OUT         CADS     FHLQ(LQ)       CAUCHY   CAUCHY(LQ)          QLH     IN - OUT
   1     0.0000       0.0000       0.0000      0.14041E-01   0.0000       0.0000     -0.14041E-01   0.0000       0.0000       0.0000       0.0000       0.0000     -0.61300E-09
   2   -0.32287       0.0000       0.0000       0.0000       0.0000      0.32287       0.0000       0.0000       0.0000       0.0000       0.0000       0.0000       0.0000    
   3     0.0000       0.0000       0.0000      0.40123E-01   0.0000      0.28275     -0.32287       0.0000       0.0000       0.0000       0.0000       0.0000      0.24319E-08
   4     0.0000      0.20000       0.0000      0.41693E-01   0.0000      0.27015E-01 -0.26871       0.0000       0.0000       0.0000       0.0000       0.0000     -0.74459E-09
   5     0.0000       0.0000       0.0000      0.27015E-01   0.0000       0.0000     -0.27015E-01   0.0000       0.0000       0.0000       0.0000       0.0000      0.79014E-10
 
 SOLVING FOR HEAD 
MODFLOW ITER.#  NEWTON-RAPHSON ITER.#   MAXIMUM NODE HEAD CHANGE
         1                   1                  0.0000000000
         1                   2                  0.0000000000
         1                   3                  0.0000000000
     1 CALLS TO PCG ROUTINE FOR TIME STEP   6 IN STRESS PERIOD    3
     1 TOTAL ITERATIONS
MODFLOW ITER.#  NEWTON-RAPHSON ITER.#   MAXIMUM NODE HEAD CHANGE
         1                   1                  0.0000000000
         1                   2                  0.0000000000
         1                   3                  0.0000000000

 NO OUTPUT CONTROL FOR STRESS PERIOD    3   TIME STEP   6
 
 
 CFPM1 CRITERION OF CONVERGENCE:     0.1000000E-05
 CFPM1 MAXIMUM NUMBER OF ITERATIONS:   100
 
 
 CFPM1 RESULTS +++++++++++++++++++++++++++++++++++++++++++++++++++++++
 
 STRESS PERIOD/TIME STEP           3           6
 
NUMBER OF NEWTON RHAPSON ITERATIONS:     3
 
 ------- RESULTS OF FLOW CALCULATION -------
 
NODE# NODE HEAD[M] MATRIX HEAD [M] EXCHANGE [M^3/D]    CADSFLOW            PFPSFLOW         DIRECT RECHARGE        QWELL         FHLQ            CAUCHY         CAUCHY LQ               QLH              QFIX
    1  20.00000      20.00018       -0.1404096E-01       0.000000           0.000000           0.000000        0.000000         0.000000         0.000000         0.000000         0.000000         0.000000    
    2  20.00    FIX  20.00000           0.0000           0.000000           0.000000           0.000000        0.000000         0.000000         0.000000         0.000000         0.000000       -0.3228715    
    3  20.00000      20.00017       -0.4012303E-01       0.000000           0.000000           0.000000        0.000000         0.000000         0.000000         0.000000         0.000000         0.000000    
    4  20.00000      20.00027       -0.4169269E-01       0.000000           0.000000          0.2000000        0.000000         0.000000         0.000000         0.000000         0.000000         0.000000    
    5  20.00000      20.00034       -0.2701487E-01       0.000000           0.000000           0.000000        0.000000         0.000000         0.000000         0.000000         0.000000         0.000000    
 
TUBE  B  E  FLOW          Q [M^3/D]       DIAM.[M]        LEN.[M]        RE         RESIDENCE TIME [D]
   1   1   3   LAMI.         0.01404        0.10000       10.00000        2.31680        5.59362
   2   2   3   TURB.        -0.32287        0.10000       10.00000       53.27480        0.24325
   3   3   4   TURB.        -0.26871        0.10000       10.00000       44.33757        0.29229
   4   4   5   LAMI.        -0.02701        0.10000       10.00000        4.45754        2.90728
 

    BUDGET OF THE PIPE SYSTEM OF TIMESTEP    6 IN STRESS PERIOD    3
------------------------------------------------------------------------

  TOTAL SIMULATION TIME   260.000000000000      S
 
       CUMULATIVE VALUES (L**3)           RATES THIS TIME STEP (L**3/T)

            IN:                               IN:
     CONSTANT HEAD =   0.0000000          CONSTANT HEAD =   0.0000000    
   MATRIX EXCHANGE =   31.941815        MATRIX EXCHANGE =  0.12287155    
     PIPE RECHARGE =   52.000000          PIPE RECHARGE =  0.20000000    
       PFP STORAGE =   0.0000000            PFP STORAGE =   0.0000000    

     CUMULATIVE IN =   83.941815               TOTAL IN =  0.32287155    

           OUT:                               OUT:
     CONSTANT HEAD =   83.941815          CONSTANT HEAD =  0.32287155    
   MATRIX EXCHANGE =   0.0000000        MATRIX EXCHANGE =   0.0000000    
     PIPE RECHARGE =   0.0000000          PIPE RECHARGE =   0.0000000    
       PFP STORAGE =   0.0000000            PFP STORAGE =   0.0000000    

    CUMULATIVE OUT =   83.941815              TOTAL OUT =  0.32287155    

          IN - OUT = -0.20147034E-07           IN - OUT =  0.51327656E-09
     PERCENT ERROR =  0.00                PERCENT ERROR =  0.00


 
 ------------------------NODE WATER BUDGET-----------------------
  STRESS PERIOD           3  TIME STEP           6
 TOTAL SIMULATION TIME   260.000000000000     
 
 FLOW TO THE NODE IN M^3/D
 
 NODE   FIXED HEAD     RECHARGE        QWELL  MATRIX EXCH      STORAGE      TUBE_IN     TUBE_OUT         CADS     FHLQ(LQ)       CAUCHY   CAUCHY(LQ)          QLH     IN - OUT
   1     0.0000       0.0000       0.0000      0.14041E-01   0.0000       0.0000     -0.14041E-01   0.0000       0.0000       0.0000       0.0000       0.0000     -0.35971E-09
   2   -0.32287       0.0000       0.0000       0.0000       0.0000      0.32287       0.0000       0.0000       0.0000       0.0000       0.0000       0.0000       0.0000    
   3     0.0000       0.0000       0.0000      0.40123E-01   0.0000      0.28275     -0.32287       0.0000       0.0000       0.0000       0.0000       0.0000      0.11976E-08
   4     0.0000      0.20000       0.0000      0.41693E-01   0.0000      0.27015E-01 -0.26871       0.0000       0.0000       0.0000       0.0000       0.0000     -0.23612E-09
   5     0.0000       0.0000       0.0000      0.27015E-01   0.0000       0.0000     -0.27015E-01   0.0000       0.0000       0.0000       0.0000       0.0000     -0.88500E-10
 
 SOLVING FOR HEAD 
MODFLOW ITER.#  NEWTON-RAPHSON ITER.#   MAXIMUM NODE HEAD CHANGE
         1                   1                  0.0000000000
         1                   2                  0.0000000000
         1                   3                  0.0000000000
     1 CALLS TO PCG ROUTINE FOR TIME STEP   7 IN STRESS PERIOD    3
     1 TOTAL ITERATIONS
MODFLOW ITER.#  NEWTON-RAPHSON ITER.#   MAXIMUM NODE HEAD CHANGE
         1                   1                  0.0000000000
         1                   2                  0.0000000000
         1                   3                  0.0000000000

 NO OUTPUT CONTROL FOR STRESS PERIOD    3   TIME STEP   7
 
 
 CFPM1 CRITERION OF CONVERGENCE:     0.1000000E-05
 CFPM1 MAXIMUM NUMBER OF ITERATIONS:   100
 
 
 CFPM1 RESULTS +++++++++++++++++++++++++++++++++++++++++++++++++++++++
 
 STRESS PERIOD/TIME STEP           3           7
 
NUMBER OF NEWTON RHAPSON ITERATIONS:     3
 
 ------- RESULTS OF FLOW CALCULATION -------
 
NODE# NODE HEAD[M] MATRIX HEAD [M] EXCHANGE [M^3/D]    CADSFLOW            PFPSFLOW         DIRECT RECHARGE        QWELL         FHLQ            CAUCHY         CAUCHY LQ               QLH              QFIX
    1  20.00000      20.00018       -0.1404097E-01       0.000000           0.000000           0.000000        0.000000         0.000000         0.000000         0.000000         0.000000         0.000000    
    2  20.00    FIX  20.00000           0.0000           0.000000           0.000000           0.000000        0.000000         0.000000         0.000000         0.000000         0.000000       -0.3228716    
    3  20.00000      20.00017       -0.4012305E-01       0.000000           0.000000           0.000000        0.000000         0.000000         0.000000         0.000000         0.000000         0.000000    
    4  20.00000      20.00027       -0.4169272E-01       0.000000           0.000000          0.2000000        0.000000         0.000000         0.000000         0.000000         0.000000         0.000000    
    5  20.00000      20.00034       -0.2701488E-01       0.000000           0.000000           0.000000        0.000000         0.000000         0.000000         0.000000         0.000000         0.000000    
 
TUBE  B  E  FLOW          Q [M^3/D]       DIAM.[M]        LEN.[M]        RE         RESIDENCE TIME [D]
   1   1   3   LAMI.         0.01404        0.10000       10.00000        2.31680        5.59362
   2   2   3   TURB.        -0.32287        0.10000       10.00000       53.27481        0.24325
   3   3   4   TURB.        -0.26871        0.10000       10.00000       44.33758        0.29229
   4   4   5   LAMI.        -0.02701        0.10000       10.00000        4.45754        2.90728
 

    BUDGET OF THE PIPE SYSTEM OF TIMESTEP    7 IN STRESS PERIOD    3
------------------------------------------------------------------------

  TOTAL SIMULATION TIME   270.000000000000      S
 
       CUMULATIVE VALUES (L**3)           RATES THIS TIME STEP (L**3/T)

            IN:                               IN:
     CONSTANT HEAD =   0.0000000          CONSTANT HEAD =   0.0000000    
   MATRIX EXCHANGE =   33.170531        MATRIX EXCHANGE =  0.12287161    
     PIPE RECHARGE =   54.000000          PIPE RECHARGE =  0.20000000    
       PFP STORAGE =   0.0000000            PFP STORAGE =   0.0000000    

     CUMULATIVE IN =   87.170531               TOTAL IN =  0.32287161    

           OUT:                               OUT:
     CONSTANT HEAD =   87.170531          CONSTANT HEAD =  0.32287161    
   MATRIX EXCHANGE =   0.0000000        MATRIX EXCHANGE =   0.0000000    
     PIPE RECHARGE =   0.0000000          PIPE RECHARGE =   0.0000000    
       PFP STORAGE =   0.0000000            PFP STORAGE =   0.0000000    

    CUMULATIVE OUT =   87.170531              TOTAL OUT =  0.32287161    

          IN - OUT = -0.24378409E-07           IN - OUT = -0.42313829E-09
     PERCENT ERROR =  0.00                PERCENT ERROR =  0.00


 
 ------------------------NODE WATER BUDGET-----------------------
  STRESS PERIOD           3  TIME STEP           7
 TOTAL SIMULATION TIME   270.000000000000     
 
 FLOW TO THE NODE IN M^3/D
 
 NODE   FIXED HEAD     RECHARGE        QWELL  MATRIX EXCH      STORAGE      TUBE_IN     TUBE_OUT         CADS     FHLQ(LQ)       CAUCHY   CAUCHY(LQ)          QLH     IN - OUT
   1     0.0000       0.0000       0.0000      0.14041E-01   0.0000       0.0000     -0.14041E-01   0.0000       0.0000       0.0000       0.0000       0.0000      0.10488E-10
   2   -0.32287       0.0000       0.0000       0.0000       0.0000      0.32287       0.0000       0.0000       0.0000       0.0000       0.0000       0.0000       0.0000    
   3     0.0000       0.0000       0.0000      0.40123E-01   0.0000      0.28275     -0.32287       0.0000       0.0000       0.0000       0.0000       0.0000     -0.13966E-08
   4     0.0000      0.20000       0.0000      0.41693E-01   0.0000      0.27015E-01 -0.26871       0.0000       0.0000       0.0000       0.0000       0.0000      0.12495E-08
   5     0.0000       0.0000       0.0000      0.27015E-01   0.0000       0.0000     -0.27015E-01   0.0000       0.0000       0.0000       0.0000       0.0000     -0.28651E-09
 
 SOLVING FOR HEAD 
MODFLOW ITER.#  NEWTON-RAPHSON ITER.#   MAXIMUM NODE HEAD CHANGE
         1                   1                  0.0000000000
         1                   2                  0.0000000000
         1                   3                  0.0000000000
     1 CALLS TO PCG ROUTINE FOR TIME STEP   8 IN STRESS PERIOD    3
     1 TOTAL ITERATIONS
MODFLOW ITER.#  NEWTON-RAPHSON ITER.#   MAXIMUM NODE HEAD CHANGE
         1                   1                  0.0000000000
         1                   2                  0.0000000000
         1                   3                  0.0000000000

 NO OUTPUT CONTROL FOR STRESS PERIOD    3   TIME STEP   8
 
 
 CFPM1 CRITERION OF CONVERGENCE:     0.1000000E-05
 CFPM1 MAXIMUM NUMBER OF ITERATIONS:   100
 
 
 CFPM1 RESULTS +++++++++++++++++++++++++++++++++++++++++++++++++++++++
 
 STRESS PERIOD/TIME STEP           3           8
 
NUMBER OF NEWTON RHAPSON ITERATIONS:     3
 
 ------- RESULTS OF FLOW CALCULATION -------
 
NODE# NODE HEAD[M] MATRIX HEAD [M] EXCHANGE [M^3/D]    CADSFLOW            PFPSFLOW         DIRECT RECHARGE        QWELL         FHLQ            CAUCHY         CAUCHY LQ               QLH              QFIX
    1  20.00000      20.00018       -0.1404097E-01       0.000000           0.000000           0.000000        0.000000         0.000000         0.000000         0.000000         0.000000         0.000000    
    2  20.00    FIX  20.00000           0.0000           0.000000           0.000000           0.000000        0.000000         0.000000         0.000000         0.000000         0.000000       -0.3228716    
    3  20.00000      20.00017       -0.4012306E-01       0.000000           0.000000           0.000000        0.000000         0.000000         0.000000         0.000000         0.000000         0.000000    
    4  20.00000      20.00027       -0.4169272E-01       0.000000           0.000000          0.2000000        0.000000         0.000000         0.000000         0.000000         0.000000         0.000000    
    5  20.00000      20.00034       -0.2701488E-01       0.000000           0.000000           0.000000        0.000000         0.000000         0.000000         0.000000         0.000000         0.000000    
 
TUBE  B  E  FLOW          Q [M^3/D]       DIAM.[M]        LEN.[M]        RE         RESIDENCE TIME [D]
   1   1   3   LAMI.         0.01404        0.10000       10.00000        2.31680        5.59362
   2   2   3   TURB.        -0.32287        0.10000       10.00000       53.27481        0.24325
   3   3   4   TURB.        -0.26871        0.10000       10.00000       44.33758        0.29229
   4   4   5   LAMI.        -0.02701        0.10000       10.00000        4.45754        2.90728
 

    BUDGET OF THE PIPE SYSTEM OF TIMESTEP    8 IN STRESS PERIOD    3
------------------------------------------------------------------------

  TOTAL SIMULATION TIME   280.000000000000      S
 
       CUMULATIVE VALUES (L**3)           RATES THIS TIME STEP (L**3/T)

            IN:                               IN:
     CONSTANT HEAD =   0.0000000          CONSTANT HEAD =   0.0000000    
   MATRIX EXCHANGE =   34.399247        MATRIX EXCHANGE =  0.12287164    
     PIPE RECHARGE =   56.000000          PIPE RECHARGE =  0.20000000    
       PFP STORAGE =   0.0000000            PFP STORAGE =   0.0000000    

     CUMULATIVE IN =   90.399247               TOTAL IN =  0.32287164    

           OUT:                               OUT:
     CONSTANT HEAD =   90.399247          CONSTANT HEAD =  0.32287163    
   MATRIX EXCHANGE =   0.0000000        MATRIX EXCHANGE =   0.0000000    
     PIPE RECHARGE =   0.0000000          PIPE RECHARGE =   0.0000000    
       PFP STORAGE =   0.0000000            PFP STORAGE =   0.0000000    

    CUMULATIVE OUT =   90.399247              TOTAL OUT =  0.32287163    

          IN - OUT = -0.12912480E-07           IN - OUT =  0.11465928E-08
     PERCENT ERROR =  0.00                PERCENT ERROR =  0.00


 
 ------------------------NODE WATER BUDGET-----------------------
  STRESS PERIOD           3  TIME STEP           8
 TOTAL SIMULATION TIME   280.000000000000     
 
 FLOW TO THE NODE IN M^3/D
 
 NODE   FIXED HEAD     RECHARGE        QWELL  MATRIX EXCH      STORAGE      TUBE_IN     TUBE_OUT         CADS     FHLQ(LQ)       CAUCHY   CAUCHY(LQ)          QLH     IN - OUT
   1     0.0000       0.0000       0.0000      0.14041E-01   0.0000       0.0000     -0.14041E-01   0.0000       0.0000       0.0000       0.0000       0.0000     -0.33573E-09
   2   -0.32287       0.0000       0.0000       0.0000       0.0000      0.32287       0.0000       0.0000       0.0000       0.0000       0.0000       0.0000       0.0000    
   3     0.0000       0.0000       0.0000      0.40123E-01   0.0000      0.28275     -0.32287       0.0000       0.0000       0.0000       0.0000       0.0000      0.17934E-08
   4     0.0000      0.20000       0.0000      0.41693E-01   0.0000      0.27015E-01 -0.26871       0.0000       0.0000       0.0000       0.0000       0.0000     -0.15152E-09
   5     0.0000       0.0000       0.0000      0.27015E-01   0.0000       0.0000     -0.27015E-01   0.0000       0.0000       0.0000       0.0000       0.0000     -0.15960E-09
 
 SOLVING FOR HEAD 
MODFLOW ITER.#  NEWTON-RAPHSON ITER.#   MAXIMUM NODE HEAD CHANGE
         1                   1                  0.0000000000
         1                   2                  0.0000000000
         1                   3                  0.0000000000
     1 CALLS TO PCG ROUTINE FOR TIME STEP   9 IN STRESS PERIOD    3
     1 TOTAL ITERATIONS
MODFLOW ITER.#  NEWTON-RAPHSON ITER.#   MAXIMUM NODE HEAD CHANGE
         1                   1                  0.0000000000
         1                   2                  0.0000000000
         1                   3                  0.0000000000

 NO OUTPUT CONTROL FOR STRESS PERIOD    3   TIME STEP   9
 
 
 CFPM1 CRITERION OF CONVERGENCE:     0.1000000E-05
 CFPM1 MAXIMUM NUMBER OF ITERATIONS:   100
 
 
 CFPM1 RESULTS +++++++++++++++++++++++++++++++++++++++++++++++++++++++
 
 STRESS PERIOD/TIME STEP           3           9
 
NUMBER OF NEWTON RHAPSON ITERATIONS:     3
 
 ------- RESULTS OF FLOW CALCULATION -------
 
NODE# NODE HEAD[M] MATRIX HEAD [M] EXCHANGE [M^3/D]    CADSFLOW            PFPSFLOW         DIRECT RECHARGE        QWELL         FHLQ            CAUCHY         CAUCHY LQ               QLH              QFIX
    1  20.00000      20.00018       -0.1404097E-01       0.000000           0.000000           0.000000        0.000000         0.000000         0.000000         0.000000         0.000000         0.000000    
    2  20.00    FIX  20.00000           0.0000           0.000000           0.000000           0.000000        0.000000         0.000000         0.000000         0.000000         0.000000       -0.3228717    
    3  20.00000      20.00017       -0.4012307E-01       0.000000           0.000000           0.000000        0.000000         0.000000         0.000000         0.000000         0.000000         0.000000    
    4  20.00000      20.00027       -0.4169273E-01       0.000000           0.000000          0.2000000        0.000000         0.000000         0.000000         0.000000         0.000000         0.000000    
    5  20.00000      20.00034       -0.2701489E-01       0.000000           0.000000           0.000000        0.000000         0.000000         0.000000         0.000000         0.000000         0.000000    
 
TUBE  B  E  FLOW          Q [M^3/D]       DIAM.[M]        LEN.[M]        RE         RESIDENCE TIME [D]
   1   1   3   LAMI.         0.01404        0.10000       10.00000        2.31680        5.59362
   2   2   3   TURB.        -0.32287        0.10000       10.00000       53.27482        0.24325
   3   3   4   TURB.        -0.26871        0.10000       10.00000       44.33758        0.29229
   4   4   5   LAMI.        -0.02701        0.10000       10.00000        4.45754        2.90728
 

    BUDGET OF THE PIPE SYSTEM OF TIMESTEP    9 IN STRESS PERIOD    3
------------------------------------------------------------------------

  TOTAL SIMULATION TIME   290.000000000000      S
 
       CUMULATIVE VALUES (L**3)           RATES THIS TIME STEP (L**3/T)

            IN:                               IN:
     CONSTANT HEAD =   0.0000000          CONSTANT HEAD =   0.0000000    
   MATRIX EXCHANGE =   35.627964        MATRIX EXCHANGE =  0.12287166    
     PIPE RECHARGE =   58.000000          PIPE RECHARGE =  0.20000000    
       PFP STORAGE =   0.0000000            PFP STORAGE =   0.0000000    

     CUMULATIVE IN =   93.627964               TOTAL IN =  0.32287166    

           OUT:                               OUT:
     CONSTANT HEAD =   93.627964          CONSTANT HEAD =  0.32287166    
   MATRIX EXCHANGE =   0.0000000        MATRIX EXCHANGE =   0.0000000    
     PIPE RECHARGE =   0.0000000          PIPE RECHARGE =   0.0000000    
       PFP STORAGE =   0.0000000            PFP STORAGE =   0.0000000    

    CUMULATIVE OUT =   93.627964              TOTAL OUT =  0.32287166    

          IN - OUT = -0.22667820E-07           IN - OUT = -0.97553363E-09
     PERCENT ERROR =  0.00                PERCENT ERROR =  0.00


 
 ------------------------NODE WATER BUDGET-----------------------
  STRESS PERIOD           3  TIME STEP           9
 TOTAL SIMULATION TIME   290.000000000000     
 
 FLOW TO THE NODE IN M^3/D
 
 NODE   FIXED HEAD     RECHARGE        QWELL  MATRIX EXCH      STORAGE      TUBE_IN     TUBE_OUT         CADS     FHLQ(LQ)       CAUCHY   CAUCHY(LQ)          QLH     IN - OUT
   1     0.0000       0.0000       0.0000      0.14041E-01   0.0000       0.0000     -0.14041E-01   0.0000       0.0000       0.0000       0.0000       0.0000      0.24491E-09
   2   -0.32287       0.0000       0.0000       0.0000       0.0000      0.32287       0.0000       0.0000       0.0000       0.0000       0.0000       0.0000       0.0000    
   3     0.0000       0.0000       0.0000      0.40123E-01   0.0000      0.28275     -0.32287       0.0000       0.0000       0.0000       0.0000       0.0000     -0.26047E-08
   4     0.0000      0.20000       0.0000      0.41693E-01   0.0000      0.27015E-01 -0.26871       0.0000       0.0000       0.0000       0.0000       0.0000      0.18077E-08
   5     0.0000       0.0000       0.0000      0.27015E-01   0.0000       0.0000     -0.27015E-01   0.0000       0.0000       0.0000       0.0000       0.0000     -0.42350E-09
 
 SOLVING FOR HEAD 
MODFLOW ITER.#  NEWTON-RAPHSON ITER.#   MAXIMUM NODE HEAD CHANGE
         1                   1                  0.0000000000
         1                   2                  0.0000000000
         1                   3                  0.0000000000
     1 CALLS TO PCG ROUTINE FOR TIME STEP  10 IN STRESS PERIOD    3
     1 TOTAL ITERATIONS

 MAXIMUM HEAD CHANGE FOR EACH ITERATION (1 INDICATES THE FIRST INNER ITERATION):

    HEAD CHANGE    HEAD CHANGE    HEAD CHANGE    HEAD CHANGE    HEAD CHANGE 
   LAYER,ROW,COL  LAYER,ROW,COL  LAYER,ROW,COL  LAYER,ROW,COL  LAYER,ROW,COL
 ---------------------------------------------------------------------------
  1  0.8889E-10
   (  3,  1,  4)

 MAXIMUM RESIDUAL FOR EACH ITERATION (1 INDICATES THE FIRST INNER ITERATION):

    RESIDUAL       RESIDUAL       RESIDUAL       RESIDUAL       RESIDUAL    
   LAYER,ROW,COL  LAYER,ROW,COL  LAYER,ROW,COL  LAYER,ROW,COL  LAYER,ROW,COL
 ---------------------------------------------------------------------------
  1 -0.5627E-07
   (  3,  2,  3)


MODFLOW ITER.#  NEWTON-RAPHSON ITER.#   MAXIMUM NODE HEAD CHANGE
         1                   1                  0.0000000000
         1                   2                  0.0000000000
         1                   3                  0.0000000000

 NO OUTPUT CONTROL FOR STRESS PERIOD    3   TIME STEP  10
 
 
 CFPM1 CRITERION OF CONVERGENCE:     0.1000000E-05
 CFPM1 MAXIMUM NUMBER OF ITERATIONS:   100
 
 
 CFPM1 RESULTS +++++++++++++++++++++++++++++++++++++++++++++++++++++++
 
 STRESS PERIOD/TIME STEP           3          10
 
NUMBER OF NEWTON RHAPSON ITERATIONS:     3
 
 ------- RESULTS OF FLOW CALCULATION -------
 
NODE# NODE HEAD[M] MATRIX HEAD [M] EXCHANGE [M^3/D]    CADSFLOW            PFPSFLOW         DIRECT RECHARGE        QWELL         FHLQ            CAUCHY         CAUCHY LQ               QLH              QFIX
    1  20.00000      20.00018       -0.1404098E-01       0.000000           0.000000           0.000000        0.000000         0.000000         0.000000         0.000000         0.000000         0.000000    
    2  20.00    FIX  20.00000           0.0000           0.000000           0.000000           0.000000        0.000000         0.000000         0.000000         0.000000         0.000000       -0.3228717    
    3  20.00000      20.00017       -0.4012307E-01       0.000000           0.000000           0.000000        0.000000         0.000000         0.000000         0.000000         0.000000         0.000000    
    4  20.00000      20.00027       -0.4169273E-01       0.000000           0.000000          0.2000000        0.000000         0.000000         0.000000         0.000000         0.000000         0.000000    
    5  20.00000      20.00034       -0.2701489E-01       0.000000           0.000000           0.000000        0.000000         0.000000         0.000000         0.000000         0.000000         0.000000    
 
TUBE  B  E  FLOW          Q [M^3/D]       DIAM.[M]        LEN.[M]        RE         RESIDENCE TIME [D]
   1   1   3   LAMI.         0.01404        0.10000       10.00000        2.31680        5.59362
   2   2   3   TURB.        -0.32287        0.10000       10.00000       53.27482        0.24325
   3   3   4   TURB.        -0.26871        0.10000       10.00000       44.33758        0.29229
   4   4   5   LAMI.        -0.02701        0.10000       10.00000        4.45754        2.90728
 

    BUDGET OF THE PIPE SYSTEM OF TIMESTEP   10 IN STRESS PERIOD    3
------------------------------------------------------------------------

  TOTAL SIMULATION TIME   300.000000000000      S
 
       CUMULATIVE VALUES (L**3)           RATES THIS TIME STEP (L**3/T)

            IN:                               IN:
     CONSTANT HEAD =   0.0000000          CONSTANT HEAD =   0.0000000    
   MATRIX EXCHANGE =   36.856681        MATRIX EXCHANGE =  0.12287167    
     PIPE RECHARGE =   60.000000          PIPE RECHARGE =  0.20000000    
       PFP STORAGE =   0.0000000            PFP STORAGE =   0.0000000    

     CUMULATIVE IN =   96.856681               TOTAL IN =  0.32287167    

           OUT:                               OUT:
     CONSTANT HEAD =   96.856681          CONSTANT HEAD =  0.32287167    
   MATRIX EXCHANGE =   0.0000000        MATRIX EXCHANGE =   0.0000000    
     PIPE RECHARGE =   0.0000000          PIPE RECHARGE =   0.0000000    
       PFP STORAGE =   0.0000000            PFP STORAGE =   0.0000000    

    CUMULATIVE OUT =   96.856681              TOTAL OUT =  0.32287167    

          IN - OUT = -0.11334400E-07           IN - OUT =  0.11333423E-08
     PERCENT ERROR =  0.00                PERCENT ERROR =  0.00


 
 ------------------------NODE WATER BUDGET-----------------------
  STRESS PERIOD           3  TIME STEP          10
 TOTAL SIMULATION TIME   300.000000000000     
 
 FLOW TO THE NODE IN M^3/D
 
 NODE   FIXED HEAD     RECHARGE        QWELL  MATRIX EXCH      STORAGE      TUBE_IN     TUBE_OUT         CADS     FHLQ(LQ)       CAUCHY   CAUCHY(LQ)          QLH     IN - OUT
   1     0.0000       0.0000       0.0000      0.14041E-01   0.0000       0.0000     -0.14041E-01   0.0000       0.0000       0.0000       0.0000       0.0000     -0.24936E-09
   2   -0.32287       0.0000       0.0000       0.0000       0.0000      0.32287       0.0000       0.0000       0.0000       0.0000       0.0000       0.0000       0.0000    
   3     0.0000       0.0000       0.0000      0.40123E-01   0.0000      0.28275     -0.32287       0.0000       0.0000       0.0000       0.0000       0.0000      0.13798E-08
   4     0.0000      0.20000       0.0000      0.41693E-01   0.0000      0.27015E-01 -0.26871       0.0000       0.0000       0.0000       0.0000       0.0000      0.72272E-09
   5     0.0000       0.0000       0.0000      0.27015E-01   0.0000       0.0000     -0.27015E-01   0.0000       0.0000       0.0000       0.0000       0.0000     -0.71986E-09
1
  VOLUMETRIC BUDGET FOR ENTIRE MODEL AT END OF TIME STEP 10 IN STRESS PERIOD   3
  ------------------------------------------------------------------------------

     CUMULATIVE VOLUMES      L**3       RATES FOR THIS TIME STEP      L**3/T
     ------------------                 ------------------------

           IN:                                      IN:
           ---                                      ---
             STORAGE =       1.9335E-05               STORAGE =           0.0000
       CONSTANT HEAD =           0.0000         CONSTANT HEAD =           0.0000
            RECHARGE =         660.0000              RECHARGE =           2.2000
               PIPES =           0.0000                 PIPES =           0.0000

            TOTAL IN =         660.0000              TOTAL IN =           2.2000

          OUT:                                     OUT:
          ----                                     ----
             STORAGE =       3.8669E-05               STORAGE =       2.0039E-13
       CONSTANT HEAD =         623.1425         CONSTANT HEAD =           2.0771
            RECHARGE =           0.0000              RECHARGE =           0.0000
               PIPES =          36.8567                 PIPES =           0.1229

           TOTAL OUT =         659.9992             TOTAL OUT =           2.2000

            IN - OUT =       7.8098E-04              IN - OUT =       4.3678E-07

 PERCENT DISCREPANCY =           0.00     PERCENT DISCREPANCY =           0.00






          TIME SUMMARY AT END OF TIME STEP  10 IN STRESS PERIOD    3
                    SECONDS     MINUTES      HOURS       DAYS        YEARS
                    -----------------------------------------------------------
   TIME STEP LENGTH 8.64000E+05  14400.      240.00      10.000     2.73785E-02
 STRESS PERIOD TIME 8.64000E+06 1.44000E+05  2400.0      100.00     0.27379    
         TOTAL TIME 2.59200E+07 4.32000E+05  7200.0      300.00     0.82136    
1
1
                            STRESS PERIOD NO.    4, LENGTH =   100.0000    
                            -----------------------------------------------

                              NUMBER OF TIME STEPS =    10

                               MULTIPLIER FOR DELT =     1.000

                            INITIAL TIME STEP SIZE =   10.00000    



                           RECHARGE
 READING ON UNIT   19 WITH FORMAT: (4E15.6)            
 
 CFP1RCH1RP SUBROUTINE READING FROM UNIT           53
  READING INPUT USED TO PARTICIAN RECHARGE
 0.0    0.0    0.0    1.0    0.0   
 
 SOLVING FOR HEAD 
MODFLOW ITER.#  NEWTON-RAPHSON ITER.#   MAXIMUM NODE HEAD CHANGE
         1                   1                  0.0000002846
         1                   2                  0.0000000271
         1                   3                  0.0000000002
MODFLOW ITER.#  NEWTON-RAPHSON ITER.#   MAXIMUM NODE HEAD CHANGE
         2                   1                  0.0000002225
         2                   2                  0.0000000065
         2                   3                  0.0000000000
MODFLOW ITER.#  NEWTON-RAPHSON ITER.#   MAXIMUM NODE HEAD CHANGE
         3                   1                  0.0000000000
         3                   2                  0.0000000000
         3                   3                  0.0000000000


     3 CALLS TO PCG ROUTINE FOR TIME STEP   1 IN STRESS PERIOD    4
    13 TOTAL ITERATIONS
MODFLOW ITER.#  NEWTON-RAPHSON ITER.#   MAXIMUM NODE HEAD CHANGE
         3                   1                  0.0000000000
         3                   2                  0.0000000000
         3                   3                  0.0000000000

 NO OUTPUT CONTROL FOR STRESS PERIOD    4   TIME STEP   1
 
 
 CFPM1 CRITERION OF CONVERGENCE:     0.1000000E-05
 CFPM1 MAXIMUM NUMBER OF ITERATIONS:   100
 
 
 CFPM1 RESULTS +++++++++++++++++++++++++++++++++++++++++++++++++++++++
 
 STRESS PERIOD/TIME STEP           4           1
 
NUMBER OF NEWTON RHAPSON ITERATIONS:     3
 
 ------- RESULTS OF FLOW CALCULATION -------
 
NODE# NODE HEAD[M] MATRIX HEAD [M] EXCHANGE [M^3/D]    CADSFLOW            PFPSFLOW         DIRECT RECHARGE        QWELL         FHLQ            CAUCHY         CAUCHY LQ               QLH              QFIX
    1  20.00000      20.00027       -0.2105308E-01       0.000000           0.000000           0.000000        0.000000         0.000000         0.000000         0.000000         0.000000         0.000000    
    2  20.00    FIX  20.00000           0.0000           0.000000           0.000000           0.000000        0.000000         0.000000         0.000000         0.000000         0.000000       -0.4842320    
    3  20.00000      20.00026       -0.6016005E-01       0.000000           0.000000           0.000000        0.000000         0.000000         0.000000         0.000000         0.000000         0.000000    
    4  20.00000      20.00040       -0.6251074E-01       0.000000           0.000000          0.3000000        0.000000         0.000000         0.000000         0.000000         0.000000         0.000000    
    5  20.00000      20.00052       -0.4050817E-01       0.000000           0.000000           0.000000        0.000000         0.000000         0.000000         0.000000         0.000000         0.000000    
 
TUBE  B  E  FLOW          Q [M^3/D]       DIAM.[M]        LEN.[M]        RE         RESIDENCE TIME [D]
   1   1   3   LAMI.         0.02105        0.10000       10.00000        3.47382        3.73056
   2   2   3   TURB.        -0.48423        0.10000       10.00000       79.89977        0.16219
   3   3   4   TURB.        -0.40302        0.10000       10.00000       66.49936        0.19488
   4   4   5   LAMI.        -0.04051        0.10000       10.00000        6.68397        1.93886
 

    BUDGET OF THE PIPE SYSTEM OF TIMESTEP    1 IN STRESS PERIOD    4
------------------------------------------------------------------------

  TOTAL SIMULATION TIME   310.000000000000      S
 
       CUMULATIVE VALUES (L**3)           RATES THIS TIME STEP (L**3/T)

            IN:                               IN:
     CONSTANT HEAD =   0.0000000          CONSTANT HEAD =   0.0000000    
   MATRIX EXCHANGE =   38.699001        MATRIX EXCHANGE =  0.18423205    
     PIPE RECHARGE =   63.000000          PIPE RECHARGE =  0.30000000    
       PFP STORAGE =   0.0000000            PFP STORAGE =   0.0000000    

     CUMULATIVE IN =   101.69900               TOTAL IN =  0.48423205    

           OUT:                               OUT:
     CONSTANT HEAD =   101.69900          CONSTANT HEAD =  0.48423205    
   MATRIX EXCHANGE =   0.0000000        MATRIX EXCHANGE =   0.0000000    
     PIPE RECHARGE =   0.0000000          PIPE RECHARGE =   0.0000000    
       PFP STORAGE =   0.0000000            PFP STORAGE =   0.0000000    

    CUMULATIVE OUT =   101.69900              TOTAL OUT =  0.48423205    

          IN - OUT = -0.59416578E-08           IN - OUT =  0.53927440E-09
     PERCENT ERROR =  0.00                PERCENT ERROR =  0.00


 
 ------------------------NODE WATER BUDGET-----------------------
  STRESS PERIOD           4  TIME STEP           1
 TOTAL SIMULATION TIME   310.000000000000     
 
 FLOW TO THE NODE IN M^3/D
 
 NODE   FIXED HEAD     RECHARGE        QWELL  MATRIX EXCH      STORAGE      TUBE_IN     TUBE_OUT         CADS     FHLQ(LQ)       CAUCHY   CAUCHY(LQ)          QLH     IN - OUT
   1     0.0000       0.0000       0.0000      0.21053E-01   0.0000       0.0000     -0.21053E-01   0.0000       0.0000       0.0000       0.0000       0.0000     -0.65500E-09
   2   -0.48423       0.0000       0.0000       0.0000       0.0000      0.48423       0.0000       0.0000       0.0000       0.0000       0.0000       0.0000       0.0000    
   3     0.0000       0.0000       0.0000      0.60160E-01   0.0000      0.42407     -0.48423       0.0000       0.0000       0.0000       0.0000       0.0000      0.96668E-09
   4     0.0000      0.30000       0.0000      0.62511E-01   0.0000      0.40508E-01 -0.40302       0.0000       0.0000       0.0000       0.0000       0.0000      0.57694E-09
   5     0.0000       0.0000       0.0000      0.40508E-01   0.0000       0.0000     -0.40508E-01   0.0000       0.0000       0.0000       0.0000       0.0000     -0.34934E-09
 
 SOLVING FOR HEAD 
MODFLOW ITER.#  NEWTON-RAPHSON ITER.#   MAXIMUM NODE HEAD CHANGE
         1                   1                  0.0000000000
         1                   2                  0.0000000000
         1                   3                  0.0000000000
     1 CALLS TO PCG ROUTINE FOR TIME STEP   2 IN STRESS PERIOD    4
     1 TOTAL ITERATIONS
MODFLOW ITER.#  NEWTON-RAPHSON ITER.#   MAXIMUM NODE HEAD CHANGE
         1                   1                  0.0000000000
         1                   2                  0.0000000000
         1                   3                  0.0000000000

 NO OUTPUT CONTROL FOR STRESS PERIOD    4   TIME STEP   2
 
 
 CFPM1 CRITERION OF CONVERGENCE:     0.1000000E-05
 CFPM1 MAXIMUM NUMBER OF ITERATIONS:   100
 
 
 CFPM1 RESULTS +++++++++++++++++++++++++++++++++++++++++++++++++++++++
 
 STRESS PERIOD/TIME STEP           4           2
 
NUMBER OF NEWTON RHAPSON ITERATIONS:     3
 
 ------- RESULTS OF FLOW CALCULATION -------
 
NODE# NODE HEAD[M] MATRIX HEAD [M] EXCHANGE [M^3/D]    CADSFLOW            PFPSFLOW         DIRECT RECHARGE        QWELL         FHLQ            CAUCHY         CAUCHY LQ               QLH              QFIX
    1  20.00000      20.00027       -0.2105309E-01       0.000000           0.000000           0.000000        0.000000         0.000000         0.000000         0.000000         0.000000         0.000000    
    2  20.00    FIX  20.00000           0.0000           0.000000           0.000000           0.000000        0.000000         0.000000         0.000000         0.000000         0.000000       -0.4842321    
    3  20.00000      20.00026       -0.6016007E-01       0.000000           0.000000           0.000000        0.000000         0.000000         0.000000         0.000000         0.000000         0.000000    
    4  20.00000      20.00040       -0.6251074E-01       0.000000           0.000000          0.3000000        0.000000         0.000000         0.000000         0.000000         0.000000         0.000000    
    5  20.00000      20.00052       -0.4050818E-01       0.000000           0.000000           0.000000        0.000000         0.000000         0.000000         0.000000         0.000000         0.000000    
 
TUBE  B  E  FLOW          Q [M^3/D]       DIAM.[M]        LEN.[M]        RE         RESIDENCE TIME [D]
   1   1   3   LAMI.         0.02105        0.10000       10.00000        3.47382        3.73056
   2   2   3   TURB.        -0.48423        0.10000       10.00000       79.89978        0.16219
   3   3   4   TURB.        -0.40302        0.10000       10.00000       66.49936        0.19488
   4   4   5   LAMI.        -0.04051        0.10000       10.00000        6.68397        1.93886
 

    BUDGET OF THE PIPE SYSTEM OF TIMESTEP    2 IN STRESS PERIOD    4
------------------------------------------------------------------------

  TOTAL SIMULATION TIME   320.000000000000      S
 
       CUMULATIVE VALUES (L**3)           RATES THIS TIME STEP (L**3/T)

            IN:                               IN:
     CONSTANT HEAD =   0.0000000          CONSTANT HEAD =   0.0000000    
   MATRIX EXCHANGE =   40.541322        MATRIX EXCHANGE =  0.18423207    
     PIPE RECHARGE =   66.000000          PIPE RECHARGE =  0.30000000    
       PFP STORAGE =   0.0000000            PFP STORAGE =   0.0000000    

     CUMULATIVE IN =   106.54132               TOTAL IN =  0.48423207    

           OUT:                               OUT:
     CONSTANT HEAD =   106.54132          CONSTANT HEAD =  0.48423207    
   MATRIX EXCHANGE =   0.0000000        MATRIX EXCHANGE =   0.0000000    
     PIPE RECHARGE =   0.0000000          PIPE RECHARGE =   0.0000000    
       PFP STORAGE =   0.0000000            PFP STORAGE =   0.0000000    

    CUMULATIVE OUT =   106.54132              TOTAL OUT =  0.48423207    

          IN - OUT = -0.11780102E-07           IN - OUT = -0.58384483E-09
     PERCENT ERROR =  0.00                PERCENT ERROR =  0.00


 
 ------------------------NODE WATER BUDGET-----------------------
  STRESS PERIOD           4  TIME STEP           2
 TOTAL SIMULATION TIME   320.000000000000     
 
 FLOW TO THE NODE IN M^3/D
 
 NODE   FIXED HEAD     RECHARGE        QWELL  MATRIX EXCH      STORAGE      TUBE_IN     TUBE_OUT         CADS     FHLQ(LQ)       CAUCHY   CAUCHY(LQ)          QLH     IN - OUT
   1     0.0000       0.0000       0.0000      0.21053E-01   0.0000       0.0000     -0.21053E-01   0.0000       0.0000       0.0000       0.0000       0.0000      0.62380E-09
   2   -0.48423       0.0000       0.0000       0.0000       0.0000      0.48423       0.0000       0.0000       0.0000       0.0000       0.0000       0.0000       0.0000    
   3     0.0000       0.0000       0.0000      0.60160E-01   0.0000      0.42407     -0.48423       0.0000       0.0000       0.0000       0.0000       0.0000     -0.24383E-08
   4     0.0000      0.30000       0.0000      0.62511E-01   0.0000      0.40508E-01 -0.40302       0.0000       0.0000       0.0000       0.0000       0.0000      0.17425E-08
   5     0.0000       0.0000       0.0000      0.40508E-01   0.0000       0.0000     -0.40508E-01   0.0000       0.0000       0.0000       0.0000       0.0000     -0.51190E-09
 
 SOLVING FOR HEAD 
MODFLOW ITER.#  NEWTON-RAPHSON ITER.#   MAXIMUM NODE HEAD CHANGE
         1                   1                  0.0000000000
         1                   2                  0.0000000000
         1                   3                  0.0000000000
     1 CALLS TO PCG ROUTINE FOR TIME STEP   3 IN STRESS PERIOD    4
     1 TOTAL ITERATIONS
MODFLOW ITER.#  NEWTON-RAPHSON ITER.#   MAXIMUM NODE HEAD CHANGE
         1                   1                  0.0000000000
         1                   2                  0.0000000000
         1                   3                  0.0000000000

 NO OUTPUT CONTROL FOR STRESS PERIOD    4   TIME STEP   3
 
 
 CFPM1 CRITERION OF CONVERGENCE:     0.1000000E-05
 CFPM1 MAXIMUM NUMBER OF ITERATIONS:   100
 
 
 CFPM1 RESULTS +++++++++++++++++++++++++++++++++++++++++++++++++++++++
 
 STRESS PERIOD/TIME STEP           4           3
 
NUMBER OF NEWTON RHAPSON ITERATIONS:     3
 
 ------- RESULTS OF FLOW CALCULATION -------
 
NODE# NODE HEAD[M] MATRIX HEAD [M] EXCHANGE [M^3/D]    CADSFLOW            PFPSFLOW         DIRECT RECHARGE        QWELL         FHLQ            CAUCHY         CAUCHY LQ               QLH              QFIX
    1  20.00000      20.00027       -0.2105310E-01       0.000000           0.000000           0.000000        0.000000         0.000000         0.000000         0.000000         0.000000         0.000000    
    2  20.00    FIX  20.00000           0.0000           0.000000           0.000000           0.000000        0.000000         0.000000         0.000000         0.000000         0.000000       -0.4842321    
    3  20.00000      20.00026       -0.6016009E-01       0.000000           0.000000           0.000000        0.000000         0.000000         0.000000         0.000000         0.000000         0.000000    
    4  20.00000      20.00040       -0.6251077E-01       0.000000           0.000000          0.3000000        0.000000         0.000000         0.000000         0.000000         0.000000         0.000000    
    5  20.00000      20.00052       -0.4050819E-01       0.000000           0.000000           0.000000        0.000000         0.000000         0.000000         0.000000         0.000000         0.000000    
 
TUBE  B  E  FLOW          Q [M^3/D]       DIAM.[M]        LEN.[M]        RE         RESIDENCE TIME [D]
   1   1   3   LAMI.         0.02105        0.10000       10.00000        3.47383        3.73056
   2   2   3   TURB.        -0.48423        0.10000       10.00000       79.89979        0.16219
   3   3   4   TURB.        -0.40302        0.10000       10.00000       66.49936        0.19488
   4   4   5   LAMI.        -0.04051        0.10000       10.00000        6.68398        1.93886
 

    BUDGET OF THE PIPE SYSTEM OF TIMESTEP    3 IN STRESS PERIOD    4
------------------------------------------------------------------------

  TOTAL SIMULATION TIME   330.000000000000      S
 
       CUMULATIVE VALUES (L**3)           RATES THIS TIME STEP (L**3/T)

            IN:                               IN:
     CONSTANT HEAD =   0.0000000          CONSTANT HEAD =   0.0000000    
   MATRIX EXCHANGE =   42.383643        MATRIX EXCHANGE =  0.18423214    
     PIPE RECHARGE =   69.000000          PIPE RECHARGE =  0.30000000    
       PFP STORAGE =   0.0000000            PFP STORAGE =   0.0000000    

     CUMULATIVE IN =   111.38364               TOTAL IN =  0.48423214    

           OUT:                               OUT:
     CONSTANT HEAD =   111.38364          CONSTANT HEAD =  0.48423214    
   MATRIX EXCHANGE =   0.0000000        MATRIX EXCHANGE =   0.0000000    
     PIPE RECHARGE =   0.0000000          PIPE RECHARGE =   0.0000000    
       PFP STORAGE =   0.0000000            PFP STORAGE =   0.0000000    

    CUMULATIVE OUT =   111.38364              TOTAL OUT =  0.48423214    

          IN - OUT = -0.64973875E-08           IN - OUT =  0.52827093E-09
     PERCENT ERROR =  0.00                PERCENT ERROR =  0.00


 
 ------------------------NODE WATER BUDGET-----------------------
  STRESS PERIOD           4  TIME STEP           3
 TOTAL SIMULATION TIME   330.000000000000     
 
 FLOW TO THE NODE IN M^3/D
 
 NODE   FIXED HEAD     RECHARGE        QWELL  MATRIX EXCH      STORAGE      TUBE_IN     TUBE_OUT         CADS     FHLQ(LQ)       CAUCHY   CAUCHY(LQ)          QLH     IN - OUT
   1     0.0000       0.0000       0.0000      0.21053E-01   0.0000       0.0000     -0.21053E-01   0.0000       0.0000       0.0000       0.0000       0.0000      0.13373E-09
   2   -0.48423       0.0000       0.0000       0.0000       0.0000      0.48423       0.0000       0.0000       0.0000       0.0000       0.0000       0.0000       0.0000    
   3     0.0000       0.0000       0.0000      0.60160E-01   0.0000      0.42407     -0.48423       0.0000       0.0000       0.0000       0.0000       0.0000      0.83806E-09
   4     0.0000      0.30000       0.0000      0.62511E-01   0.0000      0.40508E-01 -0.40302       0.0000       0.0000       0.0000       0.0000       0.0000     -0.50103E-09
   5     0.0000       0.0000       0.0000      0.40508E-01   0.0000       0.0000     -0.40508E-01   0.0000       0.0000       0.0000       0.0000       0.0000      0.57506E-10
 
 SOLVING FOR HEAD 
MODFLOW ITER.#  NEWTON-RAPHSON ITER.#   MAXIMUM NODE HEAD CHANGE
         1                   1                  0.0000000000
         1                   2                  0.0000000000
         1                   3                  0.0000000000
     1 CALLS TO PCG ROUTINE FOR TIME STEP   4 IN STRESS PERIOD    4
     1 TOTAL ITERATIONS
MODFLOW ITER.#  NEWTON-RAPHSON ITER.#   MAXIMUM NODE HEAD CHANGE
         1                   1                  0.0000000000
         1                   2                  0.0000000000
         1                   3                  0.0000000000

 NO OUTPUT CONTROL FOR STRESS PERIOD    4   TIME STEP   4
 
 
 CFPM1 CRITERION OF CONVERGENCE:     0.1000000E-05
 CFPM1 MAXIMUM NUMBER OF ITERATIONS:   100
 
 
 CFPM1 RESULTS +++++++++++++++++++++++++++++++++++++++++++++++++++++++
 
 STRESS PERIOD/TIME STEP           4           4
 
NUMBER OF NEWTON RHAPSON ITERATIONS:     3
 
 ------- RESULTS OF FLOW CALCULATION -------
 
NODE# NODE HEAD[M] MATRIX HEAD [M] EXCHANGE [M^3/D]    CADSFLOW            PFPSFLOW         DIRECT RECHARGE        QWELL         FHLQ            CAUCHY         CAUCHY LQ               QLH              QFIX
    1  20.00000      20.00027       -0.2105311E-01       0.000000           0.000000           0.000000        0.000000         0.000000         0.000000         0.000000         0.000000         0.000000    
    2  20.00    FIX  20.00000           0.0000           0.000000           0.000000           0.000000        0.000000         0.000000         0.000000         0.000000         0.000000       -0.4842322    
    3  20.00000      20.00026       -0.6016010E-01       0.000000           0.000000           0.000000        0.000000         0.000000         0.000000         0.000000         0.000000         0.000000    
    4  20.00000      20.00040       -0.6251077E-01       0.000000           0.000000          0.3000000        0.000000         0.000000         0.000000         0.000000         0.000000         0.000000    
    5  20.00000      20.00052       -0.4050819E-01       0.000000           0.000000           0.000000        0.000000         0.000000         0.000000         0.000000         0.000000         0.000000    
 
TUBE  B  E  FLOW          Q [M^3/D]       DIAM.[M]        LEN.[M]        RE         RESIDENCE TIME [D]
   1   1   3   LAMI.         0.02105        0.10000       10.00000        3.47383        3.73056
   2   2   3   TURB.        -0.48423        0.10000       10.00000       79.89979        0.16219
   3   3   4   TURB.        -0.40302        0.10000       10.00000       66.49937        0.19488
   4   4   5   LAMI.        -0.04051        0.10000       10.00000        6.68398        1.93886
 

    BUDGET OF THE PIPE SYSTEM OF TIMESTEP    4 IN STRESS PERIOD    4
------------------------------------------------------------------------

  TOTAL SIMULATION TIME   340.000000000000      S
 
       CUMULATIVE VALUES (L**3)           RATES THIS TIME STEP (L**3/T)

            IN:                               IN:
     CONSTANT HEAD =   0.0000000          CONSTANT HEAD =   0.0000000    
   MATRIX EXCHANGE =   44.225965        MATRIX EXCHANGE =  0.18423217    
     PIPE RECHARGE =   72.000000          PIPE RECHARGE =  0.30000000    
       PFP STORAGE =   0.0000000            PFP STORAGE =   0.0000000    

     CUMULATIVE IN =   116.22597               TOTAL IN =  0.48423217    

           OUT:                               OUT:
     CONSTANT HEAD =   116.22597          CONSTANT HEAD =  0.48423217    
   MATRIX EXCHANGE =   0.0000000        MATRIX EXCHANGE =   0.0000000    
     PIPE RECHARGE =   0.0000000          PIPE RECHARGE =   0.0000000    
       PFP STORAGE =   0.0000000            PFP STORAGE =   0.0000000    

    CUMULATIVE OUT =   116.22597              TOTAL OUT =  0.48423217    

          IN - OUT = -0.98054898E-10           IN - OUT =  0.63993363E-09
     PERCENT ERROR =  0.00                PERCENT ERROR =  0.00


 
 ------------------------NODE WATER BUDGET-----------------------
  STRESS PERIOD           4  TIME STEP           4
 TOTAL SIMULATION TIME   340.000000000000     
 
 FLOW TO THE NODE IN M^3/D
 
 NODE   FIXED HEAD     RECHARGE        QWELL  MATRIX EXCH      STORAGE      TUBE_IN     TUBE_OUT         CADS     FHLQ(LQ)       CAUCHY   CAUCHY(LQ)          QLH     IN - OUT
   1     0.0000       0.0000       0.0000      0.21053E-01   0.0000       0.0000     -0.21053E-01   0.0000       0.0000       0.0000       0.0000       0.0000     -0.54464E-09
   2   -0.48423       0.0000       0.0000       0.0000       0.0000      0.48423       0.0000       0.0000       0.0000       0.0000       0.0000       0.0000       0.0000    
   3     0.0000       0.0000       0.0000      0.60160E-01   0.0000      0.42407     -0.48423       0.0000       0.0000       0.0000       0.0000       0.0000      0.13531E-08
   4     0.0000      0.30000       0.0000      0.62511E-01   0.0000      0.40508E-01 -0.40302       0.0000       0.0000       0.0000       0.0000       0.0000     -0.48781E-10
   5     0.0000       0.0000       0.0000      0.40508E-01   0.0000       0.0000     -0.40508E-01   0.0000       0.0000       0.0000       0.0000       0.0000     -0.11975E-09
 
 SOLVING FOR HEAD 
MODFLOW ITER.#  NEWTON-RAPHSON ITER.#   MAXIMUM NODE HEAD CHANGE
         1                   1                  0.0000000000
         1                   2                  0.0000000000
         1                   3                  0.0000000000
     1 CALLS TO PCG ROUTINE FOR TIME STEP   5 IN STRESS PERIOD    4
     1 TOTAL ITERATIONS

 MAXIMUM HEAD CHANGE FOR EACH ITERATION (1 INDICATES THE FIRST INNER ITERATION):

    HEAD CHANGE    HEAD CHANGE    HEAD CHANGE    HEAD CHANGE    HEAD CHANGE 
   LAYER,ROW,COL  LAYER,ROW,COL  LAYER,ROW,COL  LAYER,ROW,COL  LAYER,ROW,COL
 ---------------------------------------------------------------------------
  1 -0.8826E-10
   (  2,  1,  4)

 MAXIMUM RESIDUAL FOR EACH ITERATION (1 INDICATES THE FIRST INNER ITERATION):

    RESIDUAL       RESIDUAL       RESIDUAL       RESIDUAL       RESIDUAL    
   LAYER,ROW,COL  LAYER,ROW,COL  LAYER,ROW,COL  LAYER,ROW,COL  LAYER,ROW,COL
 ---------------------------------------------------------------------------
  1 -0.1256E-06
   (  2,  3,  2)


MODFLOW ITER.#  NEWTON-RAPHSON ITER.#   MAXIMUM NODE HEAD CHANGE
         1                   1                  0.0000000000
         1                   2                  0.0000000000
         1                   3                  0.0000000000

 NO OUTPUT CONTROL FOR STRESS PERIOD    4   TIME STEP   5
 
 
 CFPM1 CRITERION OF CONVERGENCE:     0.1000000E-05
 CFPM1 MAXIMUM NUMBER OF ITERATIONS:   100
 
 
 CFPM1 RESULTS +++++++++++++++++++++++++++++++++++++++++++++++++++++++
 
 STRESS PERIOD/TIME STEP           4           5
 
NUMBER OF NEWTON RHAPSON ITERATIONS:     3
 
 ------- RESULTS OF FLOW CALCULATION -------
 
NODE# NODE HEAD[M] MATRIX HEAD [M] EXCHANGE [M^3/D]    CADSFLOW            PFPSFLOW         DIRECT RECHARGE        QWELL         FHLQ            CAUCHY         CAUCHY LQ               QLH              QFIX
    1  20.00000      20.00027       -0.2105311E-01       0.000000           0.000000           0.000000        0.000000         0.000000         0.000000         0.000000         0.000000         0.000000    
    2  20.00    FIX  20.00000           0.0000           0.000000           0.000000           0.000000        0.000000         0.000000         0.000000         0.000000         0.000000       -0.4842322    
    3  20.00000      20.00026       -0.6016011E-01       0.000000           0.000000           0.000000        0.000000         0.000000         0.000000         0.000000         0.000000         0.000000    
    4  20.00000      20.00040       -0.6251079E-01       0.000000           0.000000          0.3000000        0.000000         0.000000         0.000000         0.000000         0.000000         0.000000    
    5  20.00000      20.00052       -0.4050820E-01       0.000000           0.000000           0.000000        0.000000         0.000000         0.000000         0.000000         0.000000         0.000000    
 
TUBE  B  E  FLOW          Q [M^3/D]       DIAM.[M]        LEN.[M]        RE         RESIDENCE TIME [D]
   1   1   3   LAMI.         0.02105        0.10000       10.00000        3.47383        3.73056
   2   2   3   TURB.        -0.48423        0.10000       10.00000       79.89980        0.16219
   3   3   4   TURB.        -0.40302        0.10000       10.00000       66.49937        0.19488
   4   4   5   LAMI.        -0.04051        0.10000       10.00000        6.68398        1.93886
 

    BUDGET OF THE PIPE SYSTEM OF TIMESTEP    5 IN STRESS PERIOD    4
------------------------------------------------------------------------

  TOTAL SIMULATION TIME   350.000000000000      S
 
       CUMULATIVE VALUES (L**3)           RATES THIS TIME STEP (L**3/T)

            IN:                               IN:
     CONSTANT HEAD =   0.0000000          CONSTANT HEAD =   0.0000000    
   MATRIX EXCHANGE =   46.068287        MATRIX EXCHANGE =  0.18423220    
     PIPE RECHARGE =   75.000000          PIPE RECHARGE =  0.30000000    
       PFP STORAGE =   0.0000000            PFP STORAGE =   0.0000000    

     CUMULATIVE IN =   121.06829               TOTAL IN =  0.48423220    

           OUT:                               OUT:
     CONSTANT HEAD =   121.06829          CONSTANT HEAD =  0.48423220    
   MATRIX EXCHANGE =   0.0000000        MATRIX EXCHANGE =   0.0000000    
     PIPE RECHARGE =   0.0000000          PIPE RECHARGE =   0.0000000    
       PFP STORAGE =   0.0000000            PFP STORAGE =   0.0000000    

    CUMULATIVE OUT =   121.06829              TOTAL OUT =  0.48423220    

          IN - OUT =  0.23632651E-10           IN - OUT =  0.12169460E-10
     PERCENT ERROR =  0.00                PERCENT ERROR =  0.00


 
 ------------------------NODE WATER BUDGET-----------------------
  STRESS PERIOD           4  TIME STEP           5
 TOTAL SIMULATION TIME   350.000000000000     
 
 FLOW TO THE NODE IN M^3/D
 
 NODE   FIXED HEAD     RECHARGE        QWELL  MATRIX EXCH      STORAGE      TUBE_IN     TUBE_OUT         CADS     FHLQ(LQ)       CAUCHY   CAUCHY(LQ)          QLH     IN - OUT
   1     0.0000       0.0000       0.0000      0.21053E-01   0.0000       0.0000     -0.21053E-01   0.0000       0.0000       0.0000       0.0000       0.0000     -0.10795E-10
   2   -0.48423       0.0000       0.0000       0.0000       0.0000      0.48423       0.0000       0.0000       0.0000       0.0000       0.0000       0.0000       0.0000    
   3     0.0000       0.0000       0.0000      0.60160E-01   0.0000      0.42407     -0.48423       0.0000       0.0000       0.0000       0.0000       0.0000     -0.59349E-09
   4     0.0000      0.30000       0.0000      0.62511E-01   0.0000      0.40508E-01 -0.40302       0.0000       0.0000       0.0000       0.0000       0.0000      0.11845E-08
   5     0.0000       0.0000       0.0000      0.40508E-01   0.0000       0.0000     -0.40508E-01   0.0000       0.0000       0.0000       0.0000       0.0000     -0.56800E-09
 
 SOLVING FOR HEAD 
MODFLOW ITER.#  NEWTON-RAPHSON ITER.#   MAXIMUM NODE HEAD CHANGE
         1                   1                  0.0000000000
         1                   2                  0.0000000000
         1                   3                  0.0000000000
     1 CALLS TO PCG ROUTINE FOR TIME STEP   6 IN STRESS PERIOD    4
     1 TOTAL ITERATIONS
MODFLOW ITER.#  NEWTON-RAPHSON ITER.#   MAXIMUM NODE HEAD CHANGE
         1                   1                  0.0000000000
         1                   2                  0.0000000000
         1                   3                  0.0000000000

 NO OUTPUT CONTROL FOR STRESS PERIOD    4   TIME STEP   6
 
 
 CFPM1 CRITERION OF CONVERGENCE:     0.1000000E-05
 CFPM1 MAXIMUM NUMBER OF ITERATIONS:   100
 
 
 CFPM1 RESULTS +++++++++++++++++++++++++++++++++++++++++++++++++++++++
 
 STRESS PERIOD/TIME STEP           4           6
 
NUMBER OF NEWTON RHAPSON ITERATIONS:     3
 
 ------- RESULTS OF FLOW CALCULATION -------
 
NODE# NODE HEAD[M] MATRIX HEAD [M] EXCHANGE [M^3/D]    CADSFLOW            PFPSFLOW         DIRECT RECHARGE        QWELL         FHLQ            CAUCHY         CAUCHY LQ               QLH              QFIX
    1  20.00000      20.00027       -0.2105311E-01       0.000000           0.000000           0.000000        0.000000         0.000000         0.000000         0.000000         0.000000         0.000000    
    2  20.00    FIX  20.00000           0.0000           0.000000           0.000000           0.000000        0.000000         0.000000         0.000000         0.000000         0.000000       -0.4842322    
    3  20.00000      20.00026       -0.6016012E-01       0.000000           0.000000           0.000000        0.000000         0.000000         0.000000         0.000000         0.000000         0.000000    
    4  20.00000      20.00040       -0.6251079E-01       0.000000           0.000000          0.3000000        0.000000         0.000000         0.000000         0.000000         0.000000         0.000000    
    5  20.00000      20.00052       -0.4050820E-01       0.000000           0.000000           0.000000        0.000000         0.000000         0.000000         0.000000         0.000000         0.000000    
 
TUBE  B  E  FLOW          Q [M^3/D]       DIAM.[M]        LEN.[M]        RE         RESIDENCE TIME [D]
   1   1   3   LAMI.         0.02105        0.10000       10.00000        3.47383        3.73056
   2   2   3   TURB.        -0.48423        0.10000       10.00000       79.89980        0.16219
   3   3   4   TURB.        -0.40302        0.10000       10.00000       66.49937        0.19488
   4   4   5   LAMI.        -0.04051        0.10000       10.00000        6.68398        1.93886
 

    BUDGET OF THE PIPE SYSTEM OF TIMESTEP    6 IN STRESS PERIOD    4
------------------------------------------------------------------------

  TOTAL SIMULATION TIME   360.000000000000      S
 
       CUMULATIVE VALUES (L**3)           RATES THIS TIME STEP (L**3/T)

            IN:                               IN:
     CONSTANT HEAD =   0.0000000          CONSTANT HEAD =   0.0000000    
   MATRIX EXCHANGE =   47.910609        MATRIX EXCHANGE =  0.18423222    
     PIPE RECHARGE =   78.000000          PIPE RECHARGE =  0.30000000    
       PFP STORAGE =   0.0000000            PFP STORAGE =   0.0000000    

     CUMULATIVE IN =   125.91061               TOTAL IN =  0.48423222    

           OUT:                               OUT:
     CONSTANT HEAD =   125.91061          CONSTANT HEAD =  0.48423221    
   MATRIX EXCHANGE =   0.0000000        MATRIX EXCHANGE =   0.0000000    
     PIPE RECHARGE =   0.0000000          PIPE RECHARGE =   0.0000000    
       PFP STORAGE =   0.0000000            PFP STORAGE =   0.0000000    

    CUMULATIVE OUT =   125.91061              TOTAL OUT =  0.48423221    

          IN - OUT =  0.97077901E-09           IN - OUT =  0.94715569E-10
     PERCENT ERROR =  0.00                PERCENT ERROR =  0.00


 
 ------------------------NODE WATER BUDGET-----------------------
  STRESS PERIOD           4  TIME STEP           6
 TOTAL SIMULATION TIME   360.000000000000     
 
 FLOW TO THE NODE IN M^3/D
 
 NODE   FIXED HEAD     RECHARGE        QWELL  MATRIX EXCH      STORAGE      TUBE_IN     TUBE_OUT         CADS     FHLQ(LQ)       CAUCHY   CAUCHY(LQ)          QLH     IN - OUT
   1     0.0000       0.0000       0.0000      0.21053E-01   0.0000       0.0000     -0.21053E-01   0.0000       0.0000       0.0000       0.0000       0.0000      0.44343E-10
   2   -0.48423       0.0000       0.0000       0.0000       0.0000      0.48423       0.0000       0.0000       0.0000       0.0000       0.0000       0.0000       0.0000    
   3     0.0000       0.0000       0.0000      0.60160E-01   0.0000      0.42407     -0.48423       0.0000       0.0000       0.0000       0.0000       0.0000     -0.14795E-10
   4     0.0000      0.30000       0.0000      0.62511E-01   0.0000      0.40508E-01 -0.40302       0.0000       0.0000       0.0000       0.0000       0.0000     -0.62982E-10
   5     0.0000       0.0000       0.0000      0.40508E-01   0.0000       0.0000     -0.40508E-01   0.0000       0.0000       0.0000       0.0000       0.0000      0.12815E-09
 
 SOLVING FOR HEAD 
MODFLOW ITER.#  NEWTON-RAPHSON ITER.#   MAXIMUM NODE HEAD CHANGE
         1                   1                  0.0000000000
         1                   2                  0.0000000000
         1                   3                  0.0000000000
     1 CALLS TO PCG ROUTINE FOR TIME STEP   7 IN STRESS PERIOD    4
     1 TOTAL ITERATIONS
MODFLOW ITER.#  NEWTON-RAPHSON ITER.#   MAXIMUM NODE HEAD CHANGE
         1                   1                  0.0000000000
         1                   2                  0.0000000000
         1                   3                  0.0000000000

 NO OUTPUT CONTROL FOR STRESS PERIOD    4   TIME STEP   7
 
 
 CFPM1 CRITERION OF CONVERGENCE:     0.1000000E-05
 CFPM1 MAXIMUM NUMBER OF ITERATIONS:   100
 
 
 CFPM1 RESULTS +++++++++++++++++++++++++++++++++++++++++++++++++++++++
 
 STRESS PERIOD/TIME STEP           4           7
 
NUMBER OF NEWTON RHAPSON ITERATIONS:     3
 
 ------- RESULTS OF FLOW CALCULATION -------
 
NODE# NODE HEAD[M] MATRIX HEAD [M] EXCHANGE [M^3/D]    CADSFLOW            PFPSFLOW         DIRECT RECHARGE        QWELL         FHLQ            CAUCHY         CAUCHY LQ               QLH              QFIX
    1  20.00000      20.00027       -0.2105311E-01       0.000000           0.000000           0.000000        0.000000         0.000000         0.000000         0.000000         0.000000         0.000000    
    2  20.00    FIX  20.00000           0.0000           0.000000           0.000000           0.000000        0.000000         0.000000         0.000000         0.000000         0.000000       -0.4842322    
    3  20.00000      20.00026       -0.6016012E-01       0.000000           0.000000           0.000000        0.000000         0.000000         0.000000         0.000000         0.000000         0.000000    
    4  20.00000      20.00040       -0.6251079E-01       0.000000           0.000000          0.3000000        0.000000         0.000000         0.000000         0.000000         0.000000         0.000000    
    5  20.00000      20.00052       -0.4050820E-01       0.000000           0.000000           0.000000        0.000000         0.000000         0.000000         0.000000         0.000000         0.000000    
 
TUBE  B  E  FLOW          Q [M^3/D]       DIAM.[M]        LEN.[M]        RE         RESIDENCE TIME [D]
   1   1   3   LAMI.         0.02105        0.10000       10.00000        3.47383        3.73056
   2   2   3   TURB.        -0.48423        0.10000       10.00000       79.89980        0.16219
   3   3   4   TURB.        -0.40302        0.10000       10.00000       66.49937        0.19488
   4   4   5   LAMI.        -0.04051        0.10000       10.00000        6.68398        1.93886
 

    BUDGET OF THE PIPE SYSTEM OF TIMESTEP    7 IN STRESS PERIOD    4
------------------------------------------------------------------------

  TOTAL SIMULATION TIME   370.000000000000      S
 
       CUMULATIVE VALUES (L**3)           RATES THIS TIME STEP (L**3/T)

            IN:                               IN:
     CONSTANT HEAD =   0.0000000          CONSTANT HEAD =   0.0000000    
   MATRIX EXCHANGE =   49.752931        MATRIX EXCHANGE =  0.18423223    
     PIPE RECHARGE =   81.000000          PIPE RECHARGE =  0.30000000    
       PFP STORAGE =   0.0000000            PFP STORAGE =   0.0000000    

     CUMULATIVE IN =   130.75293               TOTAL IN =  0.48423223    

           OUT:                               OUT:
     CONSTANT HEAD =   130.75293          CONSTANT HEAD =  0.48423223    
   MATRIX EXCHANGE =   0.0000000        MATRIX EXCHANGE =   0.0000000    
     PIPE RECHARGE =   0.0000000          PIPE RECHARGE =   0.0000000    
       PFP STORAGE =   0.0000000            PFP STORAGE =   0.0000000    

    CUMULATIVE OUT =   130.75293              TOTAL OUT =  0.48423223    

          IN - OUT =  0.68416099E-08           IN - OUT =  0.58708322E-09
     PERCENT ERROR =  0.00                PERCENT ERROR =  0.00


 
 ------------------------NODE WATER BUDGET-----------------------
  STRESS PERIOD           4  TIME STEP           7
 TOTAL SIMULATION TIME   370.000000000000     
 
 FLOW TO THE NODE IN M^3/D
 
 NODE   FIXED HEAD     RECHARGE        QWELL  MATRIX EXCH      STORAGE      TUBE_IN     TUBE_OUT         CADS     FHLQ(LQ)       CAUCHY   CAUCHY(LQ)          QLH     IN - OUT
   1     0.0000       0.0000       0.0000      0.21053E-01   0.0000       0.0000     -0.21053E-01   0.0000       0.0000       0.0000       0.0000       0.0000     -0.89421E-10
   2   -0.48423       0.0000       0.0000       0.0000       0.0000      0.48423       0.0000       0.0000       0.0000       0.0000       0.0000       0.0000       0.0000    
   3     0.0000       0.0000       0.0000      0.60160E-01   0.0000      0.42407     -0.48423       0.0000       0.0000       0.0000       0.0000       0.0000      0.82249E-09
   4     0.0000      0.30000       0.0000      0.62511E-01   0.0000      0.40508E-01 -0.40302       0.0000       0.0000       0.0000       0.0000       0.0000     -0.12017E-10
   5     0.0000       0.0000       0.0000      0.40508E-01   0.0000       0.0000     -0.40508E-01   0.0000       0.0000       0.0000       0.0000       0.0000     -0.13397E-09
 
 SOLVING FOR HEAD 
MODFLOW ITER.#  NEWTON-RAPHSON ITER.#   MAXIMUM NODE HEAD CHANGE
         1                   1                  0.0000000000
         1                   2                  0.0000000000
         1                   3                  0.0000000000
     1 CALLS TO PCG ROUTINE FOR TIME STEP   8 IN STRESS PERIOD    4
     1 TOTAL ITERATIONS
MODFLOW ITER.#  NEWTON-RAPHSON ITER.#   MAXIMUM NODE HEAD CHANGE
         1                   1                  0.0000000000
         1                   2                  0.0000000000
         1                   3                  0.0000000000

 NO OUTPUT CONTROL FOR STRESS PERIOD    4   TIME STEP   8
 
 
 CFPM1 CRITERION OF CONVERGENCE:     0.1000000E-05
 CFPM1 MAXIMUM NUMBER OF ITERATIONS:   100
 
 
 CFPM1 RESULTS +++++++++++++++++++++++++++++++++++++++++++++++++++++++
 
 STRESS PERIOD/TIME STEP           4           8
 
NUMBER OF NEWTON RHAPSON ITERATIONS:     3
 
 ------- RESULTS OF FLOW CALCULATION -------
 
NODE# NODE HEAD[M] MATRIX HEAD [M] EXCHANGE [M^3/D]    CADSFLOW            PFPSFLOW         DIRECT RECHARGE        QWELL         FHLQ            CAUCHY         CAUCHY LQ               QLH              QFIX
    1  20.00000      20.00027       -0.2105311E-01       0.000000           0.000000           0.000000        0.000000         0.000000         0.000000         0.000000         0.000000         0.000000    
    2  20.00    FIX  20.00000           0.0000           0.000000           0.000000           0.000000        0.000000         0.000000         0.000000         0.000000         0.000000       -0.4842322    
    3  20.00000      20.00026       -0.6016012E-01       0.000000           0.000000           0.000000        0.000000         0.000000         0.000000         0.000000         0.000000         0.000000    
    4  20.00000      20.00040       -0.6251079E-01       0.000000           0.000000          0.3000000        0.000000         0.000000         0.000000         0.000000         0.000000         0.000000    
    5  20.00000      20.00052       -0.4050820E-01       0.000000           0.000000           0.000000        0.000000         0.000000         0.000000         0.000000         0.000000         0.000000    
 
TUBE  B  E  FLOW          Q [M^3/D]       DIAM.[M]        LEN.[M]        RE         RESIDENCE TIME [D]
   1   1   3   LAMI.         0.02105        0.10000       10.00000        3.47383        3.73056
   2   2   3   TURB.        -0.48423        0.10000       10.00000       79.89980        0.16219
   3   3   4   TURB.        -0.40302        0.10000       10.00000       66.49937        0.19488
   4   4   5   LAMI.        -0.04051        0.10000       10.00000        6.68398        1.93886
 

    BUDGET OF THE PIPE SYSTEM OF TIMESTEP    8 IN STRESS PERIOD    4
------------------------------------------------------------------------

  TOTAL SIMULATION TIME   380.000000000000      S
 
       CUMULATIVE VALUES (L**3)           RATES THIS TIME STEP (L**3/T)

            IN:                               IN:
     CONSTANT HEAD =   0.0000000          CONSTANT HEAD =   0.0000000    
   MATRIX EXCHANGE =   51.595254        MATRIX EXCHANGE =  0.18423223    
     PIPE RECHARGE =   84.000000          PIPE RECHARGE =  0.30000000    
       PFP STORAGE =   0.0000000            PFP STORAGE =   0.0000000    

     CUMULATIVE IN =   135.59525               TOTAL IN =  0.48423223    

           OUT:                               OUT:
     CONSTANT HEAD =   135.59525          CONSTANT HEAD =  0.48423223    
   MATRIX EXCHANGE =   0.0000000        MATRIX EXCHANGE =   0.0000000    
     PIPE RECHARGE =   0.0000000          PIPE RECHARGE =   0.0000000    
       PFP STORAGE =   0.0000000            PFP STORAGE =   0.0000000    

    CUMULATIVE OUT =   135.59525              TOTAL OUT =  0.48423223    

          IN - OUT =  0.10432181E-07           IN - OUT =  0.35905648E-09
     PERCENT ERROR =  0.00                PERCENT ERROR =  0.00


 
 ------------------------NODE WATER BUDGET-----------------------
  STRESS PERIOD           4  TIME STEP           8
 TOTAL SIMULATION TIME   380.000000000000     
 
 FLOW TO THE NODE IN M^3/D
 
 NODE   FIXED HEAD     RECHARGE        QWELL  MATRIX EXCH      STORAGE      TUBE_IN     TUBE_OUT         CADS     FHLQ(LQ)       CAUCHY   CAUCHY(LQ)          QLH     IN - OUT
   1     0.0000       0.0000       0.0000      0.21053E-01   0.0000       0.0000     -0.21053E-01   0.0000       0.0000       0.0000       0.0000       0.0000     -0.24029E-09
   2   -0.48423       0.0000       0.0000       0.0000       0.0000      0.48423       0.0000       0.0000       0.0000       0.0000       0.0000       0.0000       0.0000    
   3     0.0000       0.0000       0.0000      0.60160E-01   0.0000      0.42407     -0.48423       0.0000       0.0000       0.0000       0.0000       0.0000      0.48618E-09
   4     0.0000      0.30000       0.0000      0.62511E-01   0.0000      0.40508E-01 -0.40302       0.0000       0.0000       0.0000       0.0000       0.0000      0.60161E-09
   5     0.0000       0.0000       0.0000      0.40508E-01   0.0000       0.0000     -0.40508E-01   0.0000       0.0000       0.0000       0.0000       0.0000     -0.48844E-09
 
 SOLVING FOR HEAD 
MODFLOW ITER.#  NEWTON-RAPHSON ITER.#   MAXIMUM NODE HEAD CHANGE
         1                   1                  0.0000000000
         1                   2                  0.0000000000
         1                   3                  0.0000000000
     1 CALLS TO PCG ROUTINE FOR TIME STEP   9 IN STRESS PERIOD    4
     1 TOTAL ITERATIONS
MODFLOW ITER.#  NEWTON-RAPHSON ITER.#   MAXIMUM NODE HEAD CHANGE
         1                   1                  0.0000000000
         1                   2                  0.0000000000
         1                   3                  0.0000000000

 NO OUTPUT CONTROL FOR STRESS PERIOD    4   TIME STEP   9
 
 
 CFPM1 CRITERION OF CONVERGENCE:     0.1000000E-05
 CFPM1 MAXIMUM NUMBER OF ITERATIONS:   100
 
 
 CFPM1 RESULTS +++++++++++++++++++++++++++++++++++++++++++++++++++++++
 
 STRESS PERIOD/TIME STEP           4           9
 
NUMBER OF NEWTON RHAPSON ITERATIONS:     3
 
 ------- RESULTS OF FLOW CALCULATION -------
 
NODE# NODE HEAD[M] MATRIX HEAD [M] EXCHANGE [M^3/D]    CADSFLOW            PFPSFLOW         DIRECT RECHARGE        QWELL         FHLQ            CAUCHY         CAUCHY LQ               QLH              QFIX
    1  20.00000      20.00027       -0.2105311E-01       0.000000           0.000000           0.000000        0.000000         0.000000         0.000000         0.000000         0.000000         0.000000    
    2  20.00    FIX  20.00000           0.0000           0.000000           0.000000           0.000000        0.000000         0.000000         0.000000         0.000000         0.000000       -0.4842322    
    3  20.00000      20.00026       -0.6016012E-01       0.000000           0.000000           0.000000        0.000000         0.000000         0.000000         0.000000         0.000000         0.000000    
    4  20.00000      20.00040       -0.6251080E-01       0.000000           0.000000          0.3000000        0.000000         0.000000         0.000000         0.000000         0.000000         0.000000    
    5  20.00000      20.00052       -0.4050820E-01       0.000000           0.000000           0.000000        0.000000         0.000000         0.000000         0.000000         0.000000         0.000000    
 
TUBE  B  E  FLOW          Q [M^3/D]       DIAM.[M]        LEN.[M]        RE         RESIDENCE TIME [D]
   1   1   3   LAMI.         0.02105        0.10000       10.00000        3.47383        3.73056
   2   2   3   TURB.        -0.48423        0.10000       10.00000       79.89981        0.16219
   3   3   4   TURB.        -0.40302        0.10000       10.00000       66.49937        0.19488
   4   4   5   LAMI.        -0.04051        0.10000       10.00000        6.68398        1.93886
 

    BUDGET OF THE PIPE SYSTEM OF TIMESTEP    9 IN STRESS PERIOD    4
------------------------------------------------------------------------

  TOTAL SIMULATION TIME   390.000000000000      S
 
       CUMULATIVE VALUES (L**3)           RATES THIS TIME STEP (L**3/T)

            IN:                               IN:
     CONSTANT HEAD =   0.0000000          CONSTANT HEAD =   0.0000000    
   MATRIX EXCHANGE =   53.437576        MATRIX EXCHANGE =  0.18423224    
     PIPE RECHARGE =   87.000000          PIPE RECHARGE =  0.30000000    
       PFP STORAGE =   0.0000000            PFP STORAGE =   0.0000000    

     CUMULATIVE IN =   140.43758               TOTAL IN =  0.48423224    

           OUT:                               OUT:
     CONSTANT HEAD =   140.43758          CONSTANT HEAD =  0.48423224    
   MATRIX EXCHANGE =   0.0000000        MATRIX EXCHANGE =   0.0000000    
     PIPE RECHARGE =   0.0000000          PIPE RECHARGE =   0.0000000    
       PFP STORAGE =   0.0000000            PFP STORAGE =   0.0000000    

    CUMULATIVE OUT =   140.43758              TOTAL OUT =  0.48423224    

          IN - OUT =  0.47360587E-08           IN - OUT = -0.56961338E-09
     PERCENT ERROR =  0.00                PERCENT ERROR =  0.00


 
 ------------------------NODE WATER BUDGET-----------------------
  STRESS PERIOD           4  TIME STEP           9
 TOTAL SIMULATION TIME   390.000000000000     
 
 FLOW TO THE NODE IN M^3/D
 
 NODE   FIXED HEAD     RECHARGE        QWELL  MATRIX EXCH      STORAGE      TUBE_IN     TUBE_OUT         CADS     FHLQ(LQ)       CAUCHY   CAUCHY(LQ)          QLH     IN - OUT
   1     0.0000       0.0000       0.0000      0.21053E-01   0.0000       0.0000     -0.21053E-01   0.0000       0.0000       0.0000       0.0000       0.0000      0.36213E-09
   2   -0.48423       0.0000       0.0000       0.0000       0.0000      0.48423       0.0000       0.0000       0.0000       0.0000       0.0000       0.0000       0.0000    
   3     0.0000       0.0000       0.0000      0.60160E-01   0.0000      0.42407     -0.48423       0.0000       0.0000       0.0000       0.0000       0.0000     -0.13512E-08
   4     0.0000      0.30000       0.0000      0.62511E-01   0.0000      0.40508E-01 -0.40302       0.0000       0.0000       0.0000       0.0000       0.0000      0.36492E-09
   5     0.0000       0.0000       0.0000      0.40508E-01   0.0000       0.0000     -0.40508E-01   0.0000       0.0000       0.0000       0.0000       0.0000      0.54547E-10
 
 SOLVING FOR HEAD 
MODFLOW ITER.#  NEWTON-RAPHSON ITER.#   MAXIMUM NODE HEAD CHANGE
         1                   1                  0.0000000000
         1                   2                  0.0000000000
         1                   3                  0.0000000000
     1 CALLS TO PCG ROUTINE FOR TIME STEP  10 IN STRESS PERIOD    4
     1 TOTAL ITERATIONS

 MAXIMUM HEAD CHANGE FOR EACH ITERATION (1 INDICATES THE FIRST INNER ITERATION):

    HEAD CHANGE    HEAD CHANGE    HEAD CHANGE    HEAD CHANGE    HEAD CHANGE 
   LAYER,ROW,COL  LAYER,ROW,COL  LAYER,ROW,COL  LAYER,ROW,COL  LAYER,ROW,COL
 ---------------------------------------------------------------------------
  1  0.1940E-10
   (  3,  1,  4)

 MAXIMUM RESIDUAL FOR EACH ITERATION (1 INDICATES THE FIRST INNER ITERATION):

    RESIDUAL       RESIDUAL       RESIDUAL       RESIDUAL       RESIDUAL    
   LAYER,ROW,COL  LAYER,ROW,COL  LAYER,ROW,COL  LAYER,ROW,COL  LAYER,ROW,COL
 ---------------------------------------------------------------------------
  1 -0.1223E-07
   (  3,  2,  3)


MODFLOW ITER.#  NEWTON-RAPHSON ITER.#   MAXIMUM NODE HEAD CHANGE
         1                   1                  0.0000000000
         1                   2                  0.0000000000
         1                   3                  0.0000000000

 NO OUTPUT CONTROL FOR STRESS PERIOD    4   TIME STEP  10
 
 
 CFPM1 CRITERION OF CONVERGENCE:     0.1000000E-05
 CFPM1 MAXIMUM NUMBER OF ITERATIONS:   100
 
 
 CFPM1 RESULTS +++++++++++++++++++++++++++++++++++++++++++++++++++++++
 
 STRESS PERIOD/TIME STEP           4          10
 
NUMBER OF NEWTON RHAPSON ITERATIONS:     3
 
 ------- RESULTS OF FLOW CALCULATION -------
 
NODE# NODE HEAD[M] MATRIX HEAD [M] EXCHANGE [M^3/D]    CADSFLOW            PFPSFLOW         DIRECT RECHARGE        QWELL         FHLQ            CAUCHY         CAUCHY LQ               QLH              QFIX
    1  20.00000      20.00027       -0.2105311E-01       0.000000           0.000000           0.000000        0.000000         0.000000         0.000000         0.000000         0.000000         0.000000    
    2  20.00    FIX  20.00000           0.0000           0.000000           0.000000           0.000000        0.000000         0.000000         0.000000         0.000000         0.000000       -0.4842322    
    3  20.00000      20.00026       -0.6016012E-01       0.000000           0.000000           0.000000        0.000000         0.000000         0.000000         0.000000         0.000000         0.000000    
    4  20.00000      20.00040       -0.6251080E-01       0.000000           0.000000          0.3000000        0.000000         0.000000         0.000000         0.000000         0.000000         0.000000    
    5  20.00000      20.00052       -0.4050821E-01       0.000000           0.000000           0.000000        0.000000         0.000000         0.000000         0.000000         0.000000         0.000000    
 
TUBE  B  E  FLOW          Q [M^3/D]       DIAM.[M]        LEN.[M]        RE         RESIDENCE TIME [D]
   1   1   3   LAMI.         0.02105        0.10000       10.00000        3.47383        3.73056
   2   2   3   TURB.        -0.48423        0.10000       10.00000       79.89981        0.16219
   3   3   4   TURB.        -0.40302        0.10000       10.00000       66.49937        0.19488
   4   4   5   LAMI.        -0.04051        0.10000       10.00000        6.68398        1.93886
 

    BUDGET OF THE PIPE SYSTEM OF TIMESTEP   10 IN STRESS PERIOD    4
------------------------------------------------------------------------

  TOTAL SIMULATION TIME   400.000000000000      S
 
       CUMULATIVE VALUES (L**3)           RATES THIS TIME STEP (L**3/T)

            IN:                               IN:
     CONSTANT HEAD =   0.0000000          CONSTANT HEAD =   0.0000000    
   MATRIX EXCHANGE =   55.279899        MATRIX EXCHANGE =  0.18423224    
     PIPE RECHARGE =   90.000000          PIPE RECHARGE =  0.30000000    
       PFP STORAGE =   0.0000000            PFP STORAGE =   0.0000000    

     CUMULATIVE IN =   145.27990               TOTAL IN =  0.48423224    

           OUT:                               OUT:
     CONSTANT HEAD =   145.27990          CONSTANT HEAD =  0.48423224    
   MATRIX EXCHANGE =   0.0000000        MATRIX EXCHANGE =   0.0000000    
     PIPE RECHARGE =   0.0000000          PIPE RECHARGE =   0.0000000    
       PFP STORAGE =   0.0000000            PFP STORAGE =   0.0000000    

    CUMULATIVE OUT =   145.27990              TOTAL OUT =  0.48423224    

          IN - OUT =  0.18839543E-08           IN - OUT = -0.28520913E-09
     PERCENT ERROR =  0.00                PERCENT ERROR =  0.00


 
 ------------------------NODE WATER BUDGET-----------------------
  STRESS PERIOD           4  TIME STEP          10
 TOTAL SIMULATION TIME   400.000000000000     
 
 FLOW TO THE NODE IN M^3/D
 
 NODE   FIXED HEAD     RECHARGE        QWELL  MATRIX EXCH      STORAGE      TUBE_IN     TUBE_OUT         CADS     FHLQ(LQ)       CAUCHY   CAUCHY(LQ)          QLH     IN - OUT
   1     0.0000       0.0000       0.0000      0.21053E-01   0.0000       0.0000     -0.21053E-01   0.0000       0.0000       0.0000       0.0000       0.0000     -0.19696E-09
   2   -0.48423       0.0000       0.0000       0.0000       0.0000      0.48423       0.0000       0.0000       0.0000       0.0000       0.0000       0.0000       0.0000    
   3     0.0000       0.0000       0.0000      0.60160E-01   0.0000      0.42407     -0.48423       0.0000       0.0000       0.0000       0.0000       0.0000      0.62604E-09
   4     0.0000      0.30000       0.0000      0.62511E-01   0.0000      0.40508E-01 -0.40302       0.0000       0.0000       0.0000       0.0000       0.0000     -0.12903E-08
   5     0.0000       0.0000       0.0000      0.40508E-01   0.0000       0.0000     -0.40508E-01   0.0000       0.0000       0.0000       0.0000       0.0000      0.57605E-09
1
  VOLUMETRIC BUDGET FOR ENTIRE MODEL AT END OF TIME STEP 10 IN STRESS PERIOD   4
  ------------------------------------------------------------------------------

     CUMULATIVE VOLUMES      L**3       RATES FOR THIS TIME STEP      L**3/T
     ------------------                 ------------------------

           IN:                                      IN:
           ---                                      ---
             STORAGE =       1.9335E-05               STORAGE =           0.0000
       CONSTANT HEAD =           0.0000         CONSTANT HEAD =           0.0000
            RECHARGE =         990.0000              RECHARGE =           3.3000
               PIPES =           0.0000                 PIPES =           0.0000

            TOTAL IN =         990.0000              TOTAL IN =           3.3000

          OUT:                                     OUT:
          ----                                     ----
             STORAGE =       4.8336E-05               STORAGE =       4.6193E-14
       CONSTANT HEAD =         934.7191         CONSTANT HEAD =           3.1158
            RECHARGE =           0.0000              RECHARGE =           0.0000
               PIPES =          55.2799                 PIPES =           0.1842

           TOTAL OUT =         989.9991             TOTAL OUT =           3.3000

            IN - OUT =       9.3002E-04              IN - OUT =       9.2565E-08

 PERCENT DISCREPANCY =           0.00     PERCENT DISCREPANCY =           0.00






          TIME SUMMARY AT END OF TIME STEP  10 IN STRESS PERIOD    4
                    SECONDS     MINUTES      HOURS       DAYS        YEARS
                    -----------------------------------------------------------
   TIME STEP LENGTH 8.64000E+05  14400.      240.00      10.000     2.73785E-02
 STRESS PERIOD TIME 8.64000E+06 1.44000E+05  2400.0      100.00     0.27379    
         TOTAL TIME 3.45600E+07 5.76000E+05  9600.0      400.00      1.0951    
1
1
                            STRESS PERIOD NO.    5, LENGTH =   100.0000    
                            -----------------------------------------------

                              NUMBER OF TIME STEPS =    10

                               MULTIPLIER FOR DELT =     1.000

                            INITIAL TIME STEP SIZE =   10.00000    



                           RECHARGE
 READING ON UNIT   19 WITH FORMAT: (4E15.6)            
 
 CFP1RCH1RP SUBROUTINE READING FROM UNIT           53
  READING INPUT USED TO PARTICIAN RECHARGE
 0.0    0.0    0.0    1.0    0.0   
 
 SOLVING FOR HEAD 
MODFLOW ITER.#  NEWTON-RAPHSON ITER.#   MAXIMUM NODE HEAD CHANGE
         1                   1                  0.0000003637
         1                   2                  0.0000000261
         1                   3                  0.0000000002
MODFLOW ITER.#  NEWTON-RAPHSON ITER.#   MAXIMUM NODE HEAD CHANGE
         2                   1                  0.0000002102
         2                   2                  0.0000000067
         2                   3                  0.0000000000


     2 CALLS TO PCG ROUTINE FOR TIME STEP   1 IN STRESS PERIOD    5
    11 TOTAL ITERATIONS
MODFLOW ITER.#  NEWTON-RAPHSON ITER.#   MAXIMUM NODE HEAD CHANGE
         2                   1                  0.0000000000
         2                   2                  0.0000000000
         2                   3                  0.0000000000

 NO OUTPUT CONTROL FOR STRESS PERIOD    5   TIME STEP   1
 
 
 CFPM1 CRITERION OF CONVERGENCE:     0.1000000E-05
 CFPM1 MAXIMUM NUMBER OF ITERATIONS:   100
 
 
 CFPM1 RESULTS +++++++++++++++++++++++++++++++++++++++++++++++++++++++
 
 STRESS PERIOD/TIME STEP           5           1
 
NUMBER OF NEWTON RHAPSON ITERATIONS:     3
 
 ------- RESULTS OF FLOW CALCULATION -------
 
NODE# NODE HEAD[M] MATRIX HEAD [M] EXCHANGE [M^3/D]    CADSFLOW            PFPSFLOW         DIRECT RECHARGE        QWELL         FHLQ            CAUCHY         CAUCHY LQ               QLH              QFIX
    1  20.00000      20.00018       -0.1404121E-01       0.000000           0.000000           0.000000        0.000000         0.000000         0.000000         0.000000         0.000000         0.000000    
    2  20.00    FIX  20.00000           0.0000           0.000000           0.000000           0.000000        0.000000         0.000000         0.000000         0.000000         0.000000       -0.3228730    
    3  20.00000      20.00017       -0.4012379E-01       0.000000           0.000000           0.000000        0.000000         0.000000         0.000000         0.000000         0.000000         0.000000    
    4  20.00000      20.00027       -0.4169301E-01       0.000000           0.000000          0.2000000        0.000000         0.000000         0.000000         0.000000         0.000000         0.000000    
    5  20.00000      20.00034       -0.2701501E-01       0.000000           0.000000           0.000000        0.000000         0.000000         0.000000         0.000000         0.000000         0.000000    
 
TUBE  B  E  FLOW          Q [M^3/D]       DIAM.[M]        LEN.[M]        RE         RESIDENCE TIME [D]
   1   1   3   LAMI.         0.01404        0.10000       10.00000        2.31684        5.59352
   2   2   3   TURB.        -0.32287        0.10000       10.00000       53.27504        0.24325
   3   3   4   TURB.        -0.26871        0.10000       10.00000       44.33765        0.29229
   4   4   5   LAMI.        -0.02702        0.10000       10.00000        4.45756        2.90727
 

    BUDGET OF THE PIPE SYSTEM OF TIMESTEP    1 IN STRESS PERIOD    5
------------------------------------------------------------------------

  TOTAL SIMULATION TIME   410.000000000000      S
 
       CUMULATIVE VALUES (L**3)           RATES THIS TIME STEP (L**3/T)

            IN:                               IN:
     CONSTANT HEAD =   0.0000000          CONSTANT HEAD =   0.0000000    
   MATRIX EXCHANGE =   56.508629        MATRIX EXCHANGE =  0.12287302    
     PIPE RECHARGE =   92.000000          PIPE RECHARGE =  0.20000000    
       PFP STORAGE =   0.0000000            PFP STORAGE =   0.0000000    

     CUMULATIVE IN =   148.50863               TOTAL IN =  0.32287302    

           OUT:                               OUT:
     CONSTANT HEAD =   148.50863          CONSTANT HEAD =  0.32287302    
   MATRIX EXCHANGE =   0.0000000        MATRIX EXCHANGE =   0.0000000    
     PIPE RECHARGE =   0.0000000          PIPE RECHARGE =   0.0000000    
       PFP STORAGE =   0.0000000            PFP STORAGE =   0.0000000    

    CUMULATIVE OUT =   148.50863              TOTAL OUT =  0.32287302    

          IN - OUT =  0.59158793E-08           IN - OUT =  0.40319115E-09
     PERCENT ERROR =  0.00                PERCENT ERROR =  0.00


 
 ------------------------NODE WATER BUDGET-----------------------
  STRESS PERIOD           5  TIME STEP           1
 TOTAL SIMULATION TIME   410.000000000000     
 
 FLOW TO THE NODE IN M^3/D
 
 NODE   FIXED HEAD     RECHARGE        QWELL  MATRIX EXCH      STORAGE      TUBE_IN     TUBE_OUT         CADS     FHLQ(LQ)       CAUCHY   CAUCHY(LQ)          QLH     IN - OUT
   1     0.0000       0.0000       0.0000      0.14041E-01   0.0000       0.0000     -0.14041E-01   0.0000       0.0000       0.0000       0.0000       0.0000      0.22423E-09
   2   -0.32287       0.0000       0.0000       0.0000       0.0000      0.32287       0.0000       0.0000       0.0000       0.0000       0.0000       0.0000       0.0000    
   3     0.0000       0.0000       0.0000      0.40124E-01   0.0000      0.28275     -0.32287       0.0000       0.0000       0.0000       0.0000       0.0000     -0.21613E-09
   4     0.0000      0.20000       0.0000      0.41693E-01   0.0000      0.27015E-01 -0.26871       0.0000       0.0000       0.0000       0.0000       0.0000      0.81542E-09
   5     0.0000       0.0000       0.0000      0.27015E-01   0.0000       0.0000     -0.27015E-01   0.0000       0.0000       0.0000       0.0000       0.0000     -0.42033E-09
 
 SOLVING FOR HEAD 
MODFLOW ITER.#  NEWTON-RAPHSON ITER.#   MAXIMUM NODE HEAD CHANGE
         1                   1                  0.0000000000
         1                   2                  0.0000000000
         1                   3                  0.0000000000
     1 CALLS TO PCG ROUTINE FOR TIME STEP   2 IN STRESS PERIOD    5
     1 TOTAL ITERATIONS
MODFLOW ITER.#  NEWTON-RAPHSON ITER.#   MAXIMUM NODE HEAD CHANGE
         1                   1                  0.0000000000
         1                   2                  0.0000000000
         1                   3                  0.0000000000

 NO OUTPUT CONTROL FOR STRESS PERIOD    5   TIME STEP   2
 
 
 CFPM1 CRITERION OF CONVERGENCE:     0.1000000E-05
 CFPM1 MAXIMUM NUMBER OF ITERATIONS:   100
 
 
 CFPM1 RESULTS +++++++++++++++++++++++++++++++++++++++++++++++++++++++
 
 STRESS PERIOD/TIME STEP           5           2
 
NUMBER OF NEWTON RHAPSON ITERATIONS:     3
 
 ------- RESULTS OF FLOW CALCULATION -------
 
NODE# NODE HEAD[M] MATRIX HEAD [M] EXCHANGE [M^3/D]    CADSFLOW            PFPSFLOW         DIRECT RECHARGE        QWELL         FHLQ            CAUCHY         CAUCHY LQ               QLH              QFIX
    1  20.00000      20.00018       -0.1404111E-01       0.000000           0.000000           0.000000        0.000000         0.000000         0.000000         0.000000         0.000000         0.000000    
    2  20.00    FIX  20.00000           0.0000           0.000000           0.000000           0.000000        0.000000         0.000000         0.000000         0.000000         0.000000       -0.3228729    
    3  20.00000      20.00017       -0.4012352E-01       0.000000           0.000000           0.000000        0.000000         0.000000         0.000000         0.000000         0.000000         0.000000    
    4  20.00000      20.00027       -0.4169314E-01       0.000000           0.000000          0.2000000        0.000000         0.000000         0.000000         0.000000         0.000000         0.000000    
    5  20.00000      20.00034       -0.2701511E-01       0.000000           0.000000           0.000000        0.000000         0.000000         0.000000         0.000000         0.000000         0.000000    
 
TUBE  B  E  FLOW          Q [M^3/D]       DIAM.[M]        LEN.[M]        RE         RESIDENCE TIME [D]
   1   1   3   LAMI.         0.01404        0.10000       10.00000        2.31683        5.59356
   2   2   3   TURB.        -0.32287        0.10000       10.00000       53.27502        0.24325
   3   3   4   TURB.        -0.26871        0.10000       10.00000       44.33769        0.29229
   4   4   5   LAMI.        -0.02702        0.10000       10.00000        4.45758        2.90726
 

    BUDGET OF THE PIPE SYSTEM OF TIMESTEP    2 IN STRESS PERIOD    5
------------------------------------------------------------------------

  TOTAL SIMULATION TIME   420.000000000000      S
 
       CUMULATIVE VALUES (L**3)           RATES THIS TIME STEP (L**3/T)

            IN:                               IN:
     CONSTANT HEAD =   0.0000000          CONSTANT HEAD =   0.0000000    
   MATRIX EXCHANGE =   57.737358        MATRIX EXCHANGE =  0.12287289    
     PIPE RECHARGE =   94.000000          PIPE RECHARGE =  0.20000000    
       PFP STORAGE =   0.0000000            PFP STORAGE =   0.0000000    

     CUMULATIVE IN =   151.73736               TOTAL IN =  0.32287289    

           OUT:                               OUT:
     CONSTANT HEAD =   151.73736          CONSTANT HEAD =  0.32287289    
   MATRIX EXCHANGE =   0.0000000        MATRIX EXCHANGE =   0.0000000    
     PIPE RECHARGE =   0.0000000          PIPE RECHARGE =   0.0000000    
       PFP STORAGE =   0.0000000            PFP STORAGE =   0.0000000    

    CUMULATIVE OUT =   151.73736              TOTAL OUT =  0.32287289    

          IN - OUT =  0.10127366E-08           IN - OUT = -0.49031428E-09
     PERCENT ERROR =  0.00                PERCENT ERROR =  0.00


 
 ------------------------NODE WATER BUDGET-----------------------
  STRESS PERIOD           5  TIME STEP           2
 TOTAL SIMULATION TIME   420.000000000000     
 
 FLOW TO THE NODE IN M^3/D
 
 NODE   FIXED HEAD     RECHARGE        QWELL  MATRIX EXCH      STORAGE      TUBE_IN     TUBE_OUT         CADS     FHLQ(LQ)       CAUCHY   CAUCHY(LQ)          QLH     IN - OUT
   1     0.0000       0.0000       0.0000      0.14041E-01   0.0000       0.0000     -0.14041E-01   0.0000       0.0000       0.0000       0.0000       0.0000      0.28877E-10
   2   -0.32287       0.0000       0.0000       0.0000       0.0000      0.32287       0.0000       0.0000       0.0000       0.0000       0.0000       0.0000       0.0000    
   3     0.0000       0.0000       0.0000      0.40124E-01   0.0000      0.28275     -0.32287       0.0000       0.0000       0.0000       0.0000       0.0000     -0.48172E-09
   4     0.0000      0.20000       0.0000      0.41693E-01   0.0000      0.27015E-01 -0.26871       0.0000       0.0000       0.0000       0.0000       0.0000     -0.28231E-09
   5     0.0000       0.0000       0.0000      0.27015E-01   0.0000       0.0000     -0.27015E-01   0.0000       0.0000       0.0000       0.0000       0.0000      0.24484E-09
 
 SOLVING FOR HEAD 
MODFLOW ITER.#  NEWTON-RAPHSON ITER.#   MAXIMUM NODE HEAD CHANGE
         1                   1                  0.0000000000
         1                   2                  0.0000000000
         1                   3                  0.0000000000
     1 CALLS TO PCG ROUTINE FOR TIME STEP   3 IN STRESS PERIOD    5
     1 TOTAL ITERATIONS
MODFLOW ITER.#  NEWTON-RAPHSON ITER.#   MAXIMUM NODE HEAD CHANGE
         1                   1                  0.0000000000
         1                   2                  0.0000000000
         1                   3                  0.0000000000

 NO OUTPUT CONTROL FOR STRESS PERIOD    5   TIME STEP   3
 
 
 CFPM1 CRITERION OF CONVERGENCE:     0.1000000E-05
 CFPM1 MAXIMUM NUMBER OF ITERATIONS:   100
 
 
 CFPM1 RESULTS +++++++++++++++++++++++++++++++++++++++++++++++++++++++
 
 STRESS PERIOD/TIME STEP           5           3
 
NUMBER OF NEWTON RHAPSON ITERATIONS:     3
 
 ------- RESULTS OF FLOW CALCULATION -------
 
NODE# NODE HEAD[M] MATRIX HEAD [M] EXCHANGE [M^3/D]    CADSFLOW            PFPSFLOW         DIRECT RECHARGE        QWELL         FHLQ            CAUCHY         CAUCHY LQ               QLH              QFIX
    1  20.00000      20.00018       -0.1404105E-01       0.000000           0.000000           0.000000        0.000000         0.000000         0.000000         0.000000         0.000000         0.000000    
    2  20.00    FIX  20.00000           0.0000           0.000000           0.000000           0.000000        0.000000         0.000000         0.000000         0.000000         0.000000       -0.3228722    
    3  20.00000      20.00017       -0.4012332E-01       0.000000           0.000000           0.000000        0.000000         0.000000         0.000000         0.000000         0.000000         0.000000    
    4  20.00000      20.00027       -0.4169289E-01       0.000000           0.000000          0.2000000        0.000000         0.000000         0.000000         0.000000         0.000000         0.000000    
    5  20.00000      20.00034       -0.2701497E-01       0.000000           0.000000           0.000000        0.000000         0.000000         0.000000         0.000000         0.000000         0.000000    
 
TUBE  B  E  FLOW          Q [M^3/D]       DIAM.[M]        LEN.[M]        RE         RESIDENCE TIME [D]
   1   1   3   LAMI.         0.01404        0.10000       10.00000        2.31682        5.59358
   2   2   3   TURB.        -0.32287        0.10000       10.00000       53.27491        0.24325
   3   3   4   TURB.        -0.26871        0.10000       10.00000       44.33762        0.29229
   4   4   5   LAMI.        -0.02701        0.10000       10.00000        4.45755        2.90727
 

    BUDGET OF THE PIPE SYSTEM OF TIMESTEP    3 IN STRESS PERIOD    5
------------------------------------------------------------------------

  TOTAL SIMULATION TIME   430.000000000000      S
 
       CUMULATIVE VALUES (L**3)           RATES THIS TIME STEP (L**3/T)

            IN:                               IN:
     CONSTANT HEAD =   0.0000000          CONSTANT HEAD =   0.0000000    
   MATRIX EXCHANGE =   58.966080        MATRIX EXCHANGE =  0.12287223    
     PIPE RECHARGE =   96.000000          PIPE RECHARGE =  0.20000000    
       PFP STORAGE =   0.0000000            PFP STORAGE =   0.0000000    

     CUMULATIVE IN =   154.96608               TOTAL IN =  0.32287223    

           OUT:                               OUT:
     CONSTANT HEAD =   154.96608          CONSTANT HEAD =  0.32287222    
   MATRIX EXCHANGE =   0.0000000        MATRIX EXCHANGE =   0.0000000    
     PIPE RECHARGE =   0.0000000          PIPE RECHARGE =   0.0000000    
       PFP STORAGE =   0.0000000            PFP STORAGE =   0.0000000    

    CUMULATIVE OUT =   154.96608              TOTAL OUT =  0.32287222    

          IN - OUT =  0.12566254E-07           IN - OUT =  0.11553513E-08
     PERCENT ERROR =  0.00                PERCENT ERROR =  0.00


 
 ------------------------NODE WATER BUDGET-----------------------
  STRESS PERIOD           5  TIME STEP           3
 TOTAL SIMULATION TIME   430.000000000000     
 
 FLOW TO THE NODE IN M^3/D
 
 NODE   FIXED HEAD     RECHARGE        QWELL  MATRIX EXCH      STORAGE      TUBE_IN     TUBE_OUT         CADS     FHLQ(LQ)       CAUCHY   CAUCHY(LQ)          QLH     IN - OUT
   1     0.0000       0.0000       0.0000      0.14041E-01   0.0000       0.0000     -0.14041E-01   0.0000       0.0000       0.0000       0.0000       0.0000     -0.12929E-09
   2   -0.32287       0.0000       0.0000       0.0000       0.0000      0.32287       0.0000       0.0000       0.0000       0.0000       0.0000       0.0000       0.0000    
   3     0.0000       0.0000       0.0000      0.40123E-01   0.0000      0.28275     -0.32287       0.0000       0.0000       0.0000       0.0000       0.0000      0.25111E-08
   4     0.0000      0.20000       0.0000      0.41693E-01   0.0000      0.27015E-01 -0.26871       0.0000       0.0000       0.0000       0.0000       0.0000     -0.14761E-08
   5     0.0000       0.0000       0.0000      0.27015E-01   0.0000       0.0000     -0.27015E-01   0.0000       0.0000       0.0000       0.0000       0.0000      0.24964E-09
 
 SOLVING FOR HEAD 
MODFLOW ITER.#  NEWTON-RAPHSON ITER.#   MAXIMUM NODE HEAD CHANGE
         1                   1                  0.0000000000
         1                   2                  0.0000000000
         1                   3                  0.0000000000
     1 CALLS TO PCG ROUTINE FOR TIME STEP   4 IN STRESS PERIOD    5
     1 TOTAL ITERATIONS
MODFLOW ITER.#  NEWTON-RAPHSON ITER.#   MAXIMUM NODE HEAD CHANGE
         1                   1                  0.0000000000
         1                   2                  0.0000000000
         1                   3                  0.0000000000

 NO OUTPUT CONTROL FOR STRESS PERIOD    5   TIME STEP   4
 
 
 CFPM1 CRITERION OF CONVERGENCE:     0.1000000E-05
 CFPM1 MAXIMUM NUMBER OF ITERATIONS:   100
 
 
 CFPM1 RESULTS +++++++++++++++++++++++++++++++++++++++++++++++++++++++
 
 STRESS PERIOD/TIME STEP           5           4
 
NUMBER OF NEWTON RHAPSON ITERATIONS:     3
 
 ------- RESULTS OF FLOW CALCULATION -------
 
NODE# NODE HEAD[M] MATRIX HEAD [M] EXCHANGE [M^3/D]    CADSFLOW            PFPSFLOW         DIRECT RECHARGE        QWELL         FHLQ            CAUCHY         CAUCHY LQ               QLH              QFIX
    1  20.00000      20.00018       -0.1404103E-01       0.000000           0.000000           0.000000        0.000000         0.000000         0.000000         0.000000         0.000000         0.000000    
    2  20.00    FIX  20.00000           0.0000           0.000000           0.000000           0.000000        0.000000         0.000000         0.000000         0.000000         0.000000       -0.3228721    
    3  20.00000      20.00017       -0.4012324E-01       0.000000           0.000000           0.000000        0.000000         0.000000         0.000000         0.000000         0.000000         0.000000    
    4  20.00000      20.00027       -0.4169287E-01       0.000000           0.000000          0.2000000        0.000000         0.000000         0.000000         0.000000         0.000000         0.000000    
    5  20.00000      20.00034       -0.2701496E-01       0.000000           0.000000           0.000000        0.000000         0.000000         0.000000         0.000000         0.000000         0.000000    
 
TUBE  B  E  FLOW          Q [M^3/D]       DIAM.[M]        LEN.[M]        RE         RESIDENCE TIME [D]
   1   1   3   LAMI.         0.01404        0.10000       10.00000        2.31681        5.59359
   2   2   3   TURB.        -0.32287        0.10000       10.00000       53.27489        0.24325
   3   3   4   TURB.        -0.26871        0.10000       10.00000       44.33762        0.29229
   4   4   5   LAMI.        -0.02701        0.10000       10.00000        4.45755        2.90727
 

    BUDGET OF THE PIPE SYSTEM OF TIMESTEP    4 IN STRESS PERIOD    5
------------------------------------------------------------------------

  TOTAL SIMULATION TIME   440.000000000000      S
 
       CUMULATIVE VALUES (L**3)           RATES THIS TIME STEP (L**3/T)

            IN:                               IN:
     CONSTANT HEAD =   0.0000000          CONSTANT HEAD =   0.0000000    
   MATRIX EXCHANGE =   60.194801        MATRIX EXCHANGE =  0.12287210    
     PIPE RECHARGE =   98.000000          PIPE RECHARGE =  0.20000000    
       PFP STORAGE =   0.0000000            PFP STORAGE =   0.0000000    

     CUMULATIVE IN =   158.19480               TOTAL IN =  0.32287210    

           OUT:                               OUT:
     CONSTANT HEAD =   158.19480          CONSTANT HEAD =  0.32287210    
   MATRIX EXCHANGE =   0.0000000        MATRIX EXCHANGE =   0.0000000    
     PIPE RECHARGE =   0.0000000          PIPE RECHARGE =   0.0000000    
       PFP STORAGE =   0.0000000            PFP STORAGE =   0.0000000    

    CUMULATIVE OUT =   158.19480              TOTAL OUT =  0.32287210    

          IN - OUT =  0.23300629E-07           IN - OUT =  0.10734365E-08
     PERCENT ERROR =  0.00                PERCENT ERROR =  0.00


 
 ------------------------NODE WATER BUDGET-----------------------
  STRESS PERIOD           5  TIME STEP           4
 TOTAL SIMULATION TIME   440.000000000000     
 
 FLOW TO THE NODE IN M^3/D
 
 NODE   FIXED HEAD     RECHARGE        QWELL  MATRIX EXCH      STORAGE      TUBE_IN     TUBE_OUT         CADS     FHLQ(LQ)       CAUCHY   CAUCHY(LQ)          QLH     IN - OUT
   1     0.0000       0.0000       0.0000      0.14041E-01   0.0000       0.0000     -0.14041E-01   0.0000       0.0000       0.0000       0.0000       0.0000     -0.26876E-09
   2   -0.32287       0.0000       0.0000       0.0000       0.0000      0.32287       0.0000       0.0000       0.0000       0.0000       0.0000       0.0000       0.0000    
   3     0.0000       0.0000       0.0000      0.40123E-01   0.0000      0.28275     -0.32287       0.0000       0.0000       0.0000       0.0000       0.0000      0.29551E-08
   4     0.0000      0.20000       0.0000      0.41693E-01   0.0000      0.27015E-01 -0.26871       0.0000       0.0000       0.0000       0.0000       0.0000     -0.15377E-08
   5     0.0000       0.0000       0.0000      0.27015E-01   0.0000       0.0000     -0.27015E-01   0.0000       0.0000       0.0000       0.0000       0.0000     -0.75161E-10
 
 SOLVING FOR HEAD 
MODFLOW ITER.#  NEWTON-RAPHSON ITER.#   MAXIMUM NODE HEAD CHANGE
         1                   1                  0.0000000000
         1                   2                  0.0000000000
         1                   3                  0.0000000000
     1 CALLS TO PCG ROUTINE FOR TIME STEP   5 IN STRESS PERIOD    5
     1 TOTAL ITERATIONS

 MAXIMUM HEAD CHANGE FOR EACH ITERATION (1 INDICATES THE FIRST INNER ITERATION):

    HEAD CHANGE    HEAD CHANGE    HEAD CHANGE    HEAD CHANGE    HEAD CHANGE 
   LAYER,ROW,COL  LAYER,ROW,COL  LAYER,ROW,COL  LAYER,ROW,COL  LAYER,ROW,COL
 ---------------------------------------------------------------------------
  1 -0.4858E-09
   (  3,  3,  3)

 MAXIMUM RESIDUAL FOR EACH ITERATION (1 INDICATES THE FIRST INNER ITERATION):

    RESIDUAL       RESIDUAL       RESIDUAL       RESIDUAL       RESIDUAL    
   LAYER,ROW,COL  LAYER,ROW,COL  LAYER,ROW,COL  LAYER,ROW,COL  LAYER,ROW,COL
 ---------------------------------------------------------------------------
  1  0.5508E-06
   (  1,  3,  2)


MODFLOW ITER.#  NEWTON-RAPHSON ITER.#   MAXIMUM NODE HEAD CHANGE
         1                   1                  0.0000000000
         1                   2                  0.0000000000
         1                   3                  0.0000000000

 NO OUTPUT CONTROL FOR STRESS PERIOD    5   TIME STEP   5
 
 
 CFPM1 CRITERION OF CONVERGENCE:     0.1000000E-05
 CFPM1 MAXIMUM NUMBER OF ITERATIONS:   100
 
 
 CFPM1 RESULTS +++++++++++++++++++++++++++++++++++++++++++++++++++++++
 
 STRESS PERIOD/TIME STEP           5           5
 
NUMBER OF NEWTON RHAPSON ITERATIONS:     3
 
 ------- RESULTS OF FLOW CALCULATION -------
 
NODE# NODE HEAD[M] MATRIX HEAD [M] EXCHANGE [M^3/D]    CADSFLOW            PFPSFLOW         DIRECT RECHARGE        QWELL         FHLQ            CAUCHY         CAUCHY LQ               QLH              QFIX
    1  20.00000      20.00018       -0.1404101E-01       0.000000           0.000000           0.000000        0.000000         0.000000         0.000000         0.000000         0.000000         0.000000    
    2  20.00    FIX  20.00000           0.0000           0.000000           0.000000           0.000000        0.000000         0.000000         0.000000         0.000000         0.000000       -0.3228719    
    3  20.00000      20.00017       -0.4012317E-01       0.000000           0.000000           0.000000        0.000000         0.000000         0.000000         0.000000         0.000000         0.000000    
    4  20.00000      20.00027       -0.4169280E-01       0.000000           0.000000          0.2000000        0.000000         0.000000         0.000000         0.000000         0.000000         0.000000    
    5  20.00000      20.00034       -0.2701493E-01       0.000000           0.000000           0.000000        0.000000         0.000000         0.000000         0.000000         0.000000         0.000000    
 
TUBE  B  E  FLOW          Q [M^3/D]       DIAM.[M]        LEN.[M]        RE         RESIDENCE TIME [D]
   1   1   3   LAMI.         0.01404        0.10000       10.00000        2.31681        5.59360
   2   2   3   TURB.        -0.32287        0.10000       10.00000       53.27485        0.24325
   3   3   4   TURB.        -0.26871        0.10000       10.00000       44.33760        0.29229
   4   4   5   LAMI.        -0.02701        0.10000       10.00000        4.45755        2.90727
 

    BUDGET OF THE PIPE SYSTEM OF TIMESTEP    5 IN STRESS PERIOD    5
------------------------------------------------------------------------

  TOTAL SIMULATION TIME   450.000000000000      S
 
       CUMULATIVE VALUES (L**3)           RATES THIS TIME STEP (L**3/T)

            IN:                               IN:
     CONSTANT HEAD =   0.0000000          CONSTANT HEAD =   0.0000000    
   MATRIX EXCHANGE =   61.423520        MATRIX EXCHANGE =  0.12287190    
     PIPE RECHARGE =   100.00000          PIPE RECHARGE =  0.20000000    
       PFP STORAGE =   0.0000000            PFP STORAGE =   0.0000000    

     CUMULATIVE IN =   161.42352               TOTAL IN =  0.32287190    

           OUT:                               OUT:
     CONSTANT HEAD =   161.42352          CONSTANT HEAD =  0.32287190    
   MATRIX EXCHANGE =   0.0000000        MATRIX EXCHANGE =   0.0000000    
     PIPE RECHARGE =   0.0000000          PIPE RECHARGE =   0.0000000    
       PFP STORAGE =   0.0000000            PFP STORAGE =   0.0000000    

    CUMULATIVE OUT =   161.42352              TOTAL OUT =  0.32287190    

          IN - OUT =  0.32415073E-07           IN - OUT =  0.91144463E-09
     PERCENT ERROR =  0.00                PERCENT ERROR =  0.00


 
 ------------------------NODE WATER BUDGET-----------------------
  STRESS PERIOD           5  TIME STEP           5
 TOTAL SIMULATION TIME   450.000000000000     
 
 FLOW TO THE NODE IN M^3/D
 
 NODE   FIXED HEAD     RECHARGE        QWELL  MATRIX EXCH      STORAGE      TUBE_IN     TUBE_OUT         CADS     FHLQ(LQ)       CAUCHY   CAUCHY(LQ)          QLH     IN - OUT
   1     0.0000       0.0000       0.0000      0.14041E-01   0.0000       0.0000     -0.14041E-01   0.0000       0.0000       0.0000       0.0000       0.0000     -0.25403E-09
   2   -0.32287       0.0000       0.0000       0.0000       0.0000      0.32287       0.0000       0.0000       0.0000       0.0000       0.0000       0.0000       0.0000    
   3     0.0000       0.0000       0.0000      0.40123E-01   0.0000      0.28275     -0.32287       0.0000       0.0000       0.0000       0.0000       0.0000      0.29659E-08
   4     0.0000      0.20000       0.0000      0.41693E-01   0.0000      0.27015E-01 -0.26871       0.0000       0.0000       0.0000       0.0000       0.0000     -0.18767E-08
   5     0.0000       0.0000       0.0000      0.27015E-01   0.0000       0.0000     -0.27015E-01   0.0000       0.0000       0.0000       0.0000       0.0000      0.76216E-10
 
 SOLVING FOR HEAD 
MODFLOW ITER.#  NEWTON-RAPHSON ITER.#   MAXIMUM NODE HEAD CHANGE
         1                   1                  0.0000000000
         1                   2                  0.0000000000
         1                   3                  0.0000000000
     1 CALLS TO PCG ROUTINE FOR TIME STEP   6 IN STRESS PERIOD    5
     1 TOTAL ITERATIONS
MODFLOW ITER.#  NEWTON-RAPHSON ITER.#   MAXIMUM NODE HEAD CHANGE
         1                   1                  0.0000000000
         1                   2                  0.0000000000
         1                   3                  0.0000000000

 NO OUTPUT CONTROL FOR STRESS PERIOD    5   TIME STEP   6
 
 
 CFPM1 CRITERION OF CONVERGENCE:     0.1000000E-05
 CFPM1 MAXIMUM NUMBER OF ITERATIONS:   100
 
 
 CFPM1 RESULTS +++++++++++++++++++++++++++++++++++++++++++++++++++++++
 
 STRESS PERIOD/TIME STEP           5           6
 
NUMBER OF NEWTON RHAPSON ITERATIONS:     3
 
 ------- RESULTS OF FLOW CALCULATION -------
 
NODE# NODE HEAD[M] MATRIX HEAD [M] EXCHANGE [M^3/D]    CADSFLOW            PFPSFLOW         DIRECT RECHARGE        QWELL         FHLQ            CAUCHY         CAUCHY LQ               QLH              QFIX
    1  20.00000      20.00018       -0.1404100E-01       0.000000           0.000000           0.000000        0.000000         0.000000         0.000000         0.000000         0.000000         0.000000    
    2  20.00    FIX  20.00000           0.0000           0.000000           0.000000           0.000000        0.000000         0.000000         0.000000         0.000000         0.000000       -0.3228718    
    3  20.00000      20.00017       -0.4012314E-01       0.000000           0.000000           0.000000        0.000000         0.000000         0.000000         0.000000         0.000000         0.000000    
    4  20.00000      20.00027       -0.4169279E-01       0.000000           0.000000          0.2000000        0.000000         0.000000         0.000000         0.000000         0.000000         0.000000    
    5  20.00000      20.00034       -0.2701492E-01       0.000000           0.000000           0.000000        0.000000         0.000000         0.000000         0.000000         0.000000         0.000000    
 
TUBE  B  E  FLOW          Q [M^3/D]       DIAM.[M]        LEN.[M]        RE         RESIDENCE TIME [D]
   1   1   3   LAMI.         0.01404        0.10000       10.00000        2.31681        5.59361
   2   2   3   TURB.        -0.32287        0.10000       10.00000       53.27485        0.24325
   3   3   4   TURB.        -0.26871        0.10000       10.00000       44.33760        0.29229
   4   4   5   LAMI.        -0.02701        0.10000       10.00000        4.45754        2.90728
 

    BUDGET OF THE PIPE SYSTEM OF TIMESTEP    6 IN STRESS PERIOD    5
------------------------------------------------------------------------

  TOTAL SIMULATION TIME   460.000000000000      S
 
       CUMULATIVE VALUES (L**3)           RATES THIS TIME STEP (L**3/T)

            IN:                               IN:
     CONSTANT HEAD =   0.0000000          CONSTANT HEAD =   0.0000000    
   MATRIX EXCHANGE =   62.652238        MATRIX EXCHANGE =  0.12287184    
     PIPE RECHARGE =   102.00000          PIPE RECHARGE =  0.20000000    
       PFP STORAGE =   0.0000000            PFP STORAGE =   0.0000000    

     CUMULATIVE IN =   164.65224               TOTAL IN =  0.32287184    

           OUT:                               OUT:
     CONSTANT HEAD =   164.65224          CONSTANT HEAD =  0.32287185    
   MATRIX EXCHANGE =   0.0000000        MATRIX EXCHANGE =   0.0000000    
     PIPE RECHARGE =   0.0000000          PIPE RECHARGE =   0.0000000    
       PFP STORAGE =   0.0000000            PFP STORAGE =   0.0000000    

    CUMULATIVE OUT =   164.65224              TOTAL OUT =  0.32287185    

          IN - OUT =  0.21502885E-07           IN - OUT = -0.10912186E-08
     PERCENT ERROR =  0.00                PERCENT ERROR =  0.00


 
 ------------------------NODE WATER BUDGET-----------------------
  STRESS PERIOD           5  TIME STEP           6
 TOTAL SIMULATION TIME   460.000000000000     
 
 FLOW TO THE NODE IN M^3/D
 
 NODE   FIXED HEAD     RECHARGE        QWELL  MATRIX EXCH      STORAGE      TUBE_IN     TUBE_OUT         CADS     FHLQ(LQ)       CAUCHY   CAUCHY(LQ)          QLH     IN - OUT
   1     0.0000       0.0000       0.0000      0.14041E-01   0.0000       0.0000     -0.14041E-01   0.0000       0.0000       0.0000       0.0000       0.0000      0.44066E-09
   2   -0.32287       0.0000       0.0000       0.0000       0.0000      0.32287       0.0000       0.0000       0.0000       0.0000       0.0000       0.0000       0.0000    
   3     0.0000       0.0000       0.0000      0.40123E-01   0.0000      0.28275     -0.32287       0.0000       0.0000       0.0000       0.0000       0.0000     -0.28804E-08
   4     0.0000      0.20000       0.0000      0.41693E-01   0.0000      0.27015E-01 -0.26871       0.0000       0.0000       0.0000       0.0000       0.0000      0.13605E-08
   5     0.0000       0.0000       0.0000      0.27015E-01   0.0000       0.0000     -0.27015E-01   0.0000       0.0000       0.0000       0.0000       0.0000     -0.11945E-10
 
 SOLVING FOR HEAD 
MODFLOW ITER.#  NEWTON-RAPHSON ITER.#   MAXIMUM NODE HEAD CHANGE
         1                   1                  0.0000000000
         1                   2                  0.0000000000
         1                   3                  0.0000000000
     1 CALLS TO PCG ROUTINE FOR TIME STEP   7 IN STRESS PERIOD    5
     1 TOTAL ITERATIONS
MODFLOW ITER.#  NEWTON-RAPHSON ITER.#   MAXIMUM NODE HEAD CHANGE
         1                   1                  0.0000000000
         1                   2                  0.0000000000
         1                   3                  0.0000000000

 NO OUTPUT CONTROL FOR STRESS PERIOD    5   TIME STEP   7
 
 
 CFPM1 CRITERION OF CONVERGENCE:     0.1000000E-05
 CFPM1 MAXIMUM NUMBER OF ITERATIONS:   100
 
 
 CFPM1 RESULTS +++++++++++++++++++++++++++++++++++++++++++++++++++++++
 
 STRESS PERIOD/TIME STEP           5           7
 
NUMBER OF NEWTON RHAPSON ITERATIONS:     3
 
 ------- RESULTS OF FLOW CALCULATION -------
 
NODE# NODE HEAD[M] MATRIX HEAD [M] EXCHANGE [M^3/D]    CADSFLOW            PFPSFLOW         DIRECT RECHARGE        QWELL         FHLQ            CAUCHY         CAUCHY LQ               QLH              QFIX
    1  20.00000      20.00018       -0.1404099E-01       0.000000           0.000000           0.000000        0.000000         0.000000         0.000000         0.000000         0.000000         0.000000    
    2  20.00    FIX  20.00000           0.0000           0.000000           0.000000           0.000000        0.000000         0.000000         0.000000         0.000000         0.000000       -0.3228718    
    3  20.00000      20.00017       -0.4012311E-01       0.000000           0.000000           0.000000        0.000000         0.000000         0.000000         0.000000         0.000000         0.000000    
    4  20.00000      20.00027       -0.4169276E-01       0.000000           0.000000          0.2000000        0.000000         0.000000         0.000000         0.000000         0.000000         0.000000    
    5  20.00000      20.00034       -0.2701491E-01       0.000000           0.000000           0.000000        0.000000         0.000000         0.000000         0.000000         0.000000         0.000000    
 
TUBE  B  E  FLOW          Q [M^3/D]       DIAM.[M]        LEN.[M]        RE         RESIDENCE TIME [D]
   1   1   3   LAMI.         0.01404        0.10000       10.00000        2.31681        5.59361
   2   2   3   TURB.        -0.32287        0.10000       10.00000       53.27483        0.24325
   3   3   4   TURB.        -0.26871        0.10000       10.00000       44.33759        0.29229
   4   4   5   LAMI.        -0.02701        0.10000       10.00000        4.45754        2.90728
 

    BUDGET OF THE PIPE SYSTEM OF TIMESTEP    7 IN STRESS PERIOD    5
------------------------------------------------------------------------

  TOTAL SIMULATION TIME   470.000000000000      S
 
       CUMULATIVE VALUES (L**3)           RATES THIS TIME STEP (L**3/T)

            IN:                               IN:
     CONSTANT HEAD =   0.0000000          CONSTANT HEAD =   0.0000000    
   MATRIX EXCHANGE =   63.880956        MATRIX EXCHANGE =  0.12287178    
     PIPE RECHARGE =   104.00000          PIPE RECHARGE =  0.20000000    
       PFP STORAGE =   0.0000000            PFP STORAGE =   0.0000000    

     CUMULATIVE IN =   167.88096               TOTAL IN =  0.32287178    

           OUT:                               OUT:
     CONSTANT HEAD =   167.88096          CONSTANT HEAD =  0.32287177    
   MATRIX EXCHANGE =   0.0000000        MATRIX EXCHANGE =   0.0000000    
     PIPE RECHARGE =   0.0000000          PIPE RECHARGE =   0.0000000    
       PFP STORAGE =   0.0000000            PFP STORAGE =   0.0000000    

    CUMULATIVE OUT =   167.88096              TOTAL OUT =  0.32287177    

          IN - OUT =  0.28507102E-07           IN - OUT =  0.70042207E-09
     PERCENT ERROR =  0.00                PERCENT ERROR =  0.00


 
 ------------------------NODE WATER BUDGET-----------------------
  STRESS PERIOD           5  TIME STEP           7
 TOTAL SIMULATION TIME   470.000000000000     
 
 FLOW TO THE NODE IN M^3/D
 
 NODE   FIXED HEAD     RECHARGE        QWELL  MATRIX EXCH      STORAGE      TUBE_IN     TUBE_OUT         CADS     FHLQ(LQ)       CAUCHY   CAUCHY(LQ)          QLH     IN - OUT
   1     0.0000       0.0000       0.0000      0.14041E-01   0.0000       0.0000     -0.14041E-01   0.0000       0.0000       0.0000       0.0000       0.0000      0.11892E-09
   2   -0.32287       0.0000       0.0000       0.0000       0.0000      0.32287       0.0000       0.0000       0.0000       0.0000       0.0000       0.0000       0.0000    
   3     0.0000       0.0000       0.0000      0.40123E-01   0.0000      0.28275     -0.32287       0.0000       0.0000       0.0000       0.0000       0.0000      0.10858E-08
   4     0.0000      0.20000       0.0000      0.41693E-01   0.0000      0.27015E-01 -0.26871       0.0000       0.0000       0.0000       0.0000       0.0000     -0.72345E-09
   5     0.0000       0.0000       0.0000      0.27015E-01   0.0000       0.0000     -0.27015E-01   0.0000       0.0000       0.0000       0.0000       0.0000      0.21919E-09
 
 SOLVING FOR HEAD 
MODFLOW ITER.#  NEWTON-RAPHSON ITER.#   MAXIMUM NODE HEAD CHANGE
         1                   1                  0.0000000000
         1                   2                  0.0000000000
         1                   3                  0.0000000000
     1 CALLS TO PCG ROUTINE FOR TIME STEP   8 IN STRESS PERIOD    5
     1 TOTAL ITERATIONS
MODFLOW ITER.#  NEWTON-RAPHSON ITER.#   MAXIMUM NODE HEAD CHANGE
         1                   1                  0.0000000000
         1                   2                  0.0000000000
         1                   3                  0.0000000000

 NO OUTPUT CONTROL FOR STRESS PERIOD    5   TIME STEP   8
 
 
 CFPM1 CRITERION OF CONVERGENCE:     0.1000000E-05
 CFPM1 MAXIMUM NUMBER OF ITERATIONS:   100
 
 
 CFPM1 RESULTS +++++++++++++++++++++++++++++++++++++++++++++++++++++++
 
 STRESS PERIOD/TIME STEP           5           8
 
NUMBER OF NEWTON RHAPSON ITERATIONS:     3
 
 ------- RESULTS OF FLOW CALCULATION -------
 
NODE# NODE HEAD[M] MATRIX HEAD [M] EXCHANGE [M^3/D]    CADSFLOW            PFPSFLOW         DIRECT RECHARGE        QWELL         FHLQ            CAUCHY         CAUCHY LQ               QLH              QFIX
    1  20.00000      20.00018       -0.1404099E-01       0.000000           0.000000           0.000000        0.000000         0.000000         0.000000         0.000000         0.000000         0.000000    
    2  20.00    FIX  20.00000           0.0000           0.000000           0.000000           0.000000        0.000000         0.000000         0.000000         0.000000         0.000000       -0.3228718    
    3  20.00000      20.00017       -0.4012310E-01       0.000000           0.000000           0.000000        0.000000         0.000000         0.000000         0.000000         0.000000         0.000000    
    4  20.00000      20.00027       -0.4169276E-01       0.000000           0.000000          0.2000000        0.000000         0.000000         0.000000         0.000000         0.000000         0.000000    
    5  20.00000      20.00034       -0.2701490E-01       0.000000           0.000000           0.000000        0.000000         0.000000         0.000000         0.000000         0.000000         0.000000    
 
TUBE  B  E  FLOW          Q [M^3/D]       DIAM.[M]        LEN.[M]        RE         RESIDENCE TIME [D]
   1   1   3   LAMI.         0.01404        0.10000       10.00000        2.31681        5.59361
   2   2   3   TURB.        -0.32287        0.10000       10.00000       53.27483        0.24325
   3   3   4   TURB.        -0.26871        0.10000       10.00000       44.33759        0.29229
   4   4   5   LAMI.        -0.02701        0.10000       10.00000        4.45754        2.90728
 

    BUDGET OF THE PIPE SYSTEM OF TIMESTEP    8 IN STRESS PERIOD    5
------------------------------------------------------------------------

  TOTAL SIMULATION TIME   480.000000000000      S
 
       CUMULATIVE VALUES (L**3)           RATES THIS TIME STEP (L**3/T)

            IN:                               IN:
     CONSTANT HEAD =   0.0000000          CONSTANT HEAD =   0.0000000    
   MATRIX EXCHANGE =   65.109674        MATRIX EXCHANGE =  0.12287175    
     PIPE RECHARGE =   106.00000          PIPE RECHARGE =  0.20000000    
       PFP STORAGE =   0.0000000            PFP STORAGE =   0.0000000    

     CUMULATIVE IN =   171.10967               TOTAL IN =  0.32287175    

           OUT:                               OUT:
     CONSTANT HEAD =   171.10967          CONSTANT HEAD =  0.32287175    
   MATRIX EXCHANGE =   0.0000000        MATRIX EXCHANGE =   0.0000000    
     PIPE RECHARGE =   0.0000000          PIPE RECHARGE =   0.0000000    
       PFP STORAGE =   0.0000000            PFP STORAGE =   0.0000000    

    CUMULATIVE OUT =   171.10967              TOTAL OUT =  0.32287175    

          IN - OUT =  0.22342050E-07           IN - OUT = -0.61650457E-09
     PERCENT ERROR =  0.00                PERCENT ERROR =  0.00


 
 ------------------------NODE WATER BUDGET-----------------------
  STRESS PERIOD           5  TIME STEP           8
 TOTAL SIMULATION TIME   480.000000000000     
 
 FLOW TO THE NODE IN M^3/D
 
 NODE   FIXED HEAD     RECHARGE        QWELL  MATRIX EXCH      STORAGE      TUBE_IN     TUBE_OUT         CADS     FHLQ(LQ)       CAUCHY   CAUCHY(LQ)          QLH     IN - OUT
   1     0.0000       0.0000       0.0000      0.14041E-01   0.0000       0.0000     -0.14041E-01   0.0000       0.0000       0.0000       0.0000       0.0000      0.19280E-09
   2   -0.32287       0.0000       0.0000       0.0000       0.0000      0.32287       0.0000       0.0000       0.0000       0.0000       0.0000       0.0000       0.0000    
   3     0.0000       0.0000       0.0000      0.40123E-01   0.0000      0.28275     -0.32287       0.0000       0.0000       0.0000       0.0000       0.0000     -0.72363E-09
   4     0.0000      0.20000       0.0000      0.41693E-01   0.0000      0.27015E-01 -0.26871       0.0000       0.0000       0.0000       0.0000       0.0000     -0.50015E-09
   5     0.0000       0.0000       0.0000      0.27015E-01   0.0000       0.0000     -0.27015E-01   0.0000       0.0000       0.0000       0.0000       0.0000      0.41447E-09
 
 SOLVING FOR HEAD 
MODFLOW ITER.#  NEWTON-RAPHSON ITER.#   MAXIMUM NODE HEAD CHANGE
         1                   1                  0.0000000000
         1                   2                  0.0000000000
         1                   3                  0.0000000000
     1 CALLS TO PCG ROUTINE FOR TIME STEP   9 IN STRESS PERIOD    5
     1 TOTAL ITERATIONS
MODFLOW ITER.#  NEWTON-RAPHSON ITER.#   MAXIMUM NODE HEAD CHANGE
         1                   1                  0.0000000000
         1                   2                  0.0000000000
         1                   3                  0.0000000000

 NO OUTPUT CONTROL FOR STRESS PERIOD    5   TIME STEP   9
 
 
 CFPM1 CRITERION OF CONVERGENCE:     0.1000000E-05
 CFPM1 MAXIMUM NUMBER OF ITERATIONS:   100
 
 
 CFPM1 RESULTS +++++++++++++++++++++++++++++++++++++++++++++++++++++++
 
 STRESS PERIOD/TIME STEP           5           9
 
NUMBER OF NEWTON RHAPSON ITERATIONS:     3
 
 ------- RESULTS OF FLOW CALCULATION -------
 
NODE# NODE HEAD[M] MATRIX HEAD [M] EXCHANGE [M^3/D]    CADSFLOW            PFPSFLOW         DIRECT RECHARGE        QWELL         FHLQ            CAUCHY         CAUCHY LQ               QLH              QFIX
    1  20.00000      20.00018       -0.1404098E-01       0.000000           0.000000           0.000000        0.000000         0.000000         0.000000         0.000000         0.000000         0.000000    
    2  20.00    FIX  20.00000           0.0000           0.000000           0.000000           0.000000        0.000000         0.000000         0.000000         0.000000         0.000000       -0.3228717    
    3  20.00000      20.00017       -0.4012309E-01       0.000000           0.000000           0.000000        0.000000         0.000000         0.000000         0.000000         0.000000         0.000000    
    4  20.00000      20.00027       -0.4169275E-01       0.000000           0.000000          0.2000000        0.000000         0.000000         0.000000         0.000000         0.000000         0.000000    
    5  20.00000      20.00034       -0.2701490E-01       0.000000           0.000000           0.000000        0.000000         0.000000         0.000000         0.000000         0.000000         0.000000    
 
TUBE  B  E  FLOW          Q [M^3/D]       DIAM.[M]        LEN.[M]        RE         RESIDENCE TIME [D]
   1   1   3   LAMI.         0.01404        0.10000       10.00000        2.31681        5.59361
   2   2   3   TURB.        -0.32287        0.10000       10.00000       53.27483        0.24325
   3   3   4   TURB.        -0.26871        0.10000       10.00000       44.33759        0.29229
   4   4   5   LAMI.        -0.02701        0.10000       10.00000        4.45754        2.90728
 

    BUDGET OF THE PIPE SYSTEM OF TIMESTEP    9 IN STRESS PERIOD    5
------------------------------------------------------------------------

  TOTAL SIMULATION TIME   490.000000000000      S
 
       CUMULATIVE VALUES (L**3)           RATES THIS TIME STEP (L**3/T)

            IN:                               IN:
     CONSTANT HEAD =   0.0000000          CONSTANT HEAD =   0.0000000    
   MATRIX EXCHANGE =   66.338391        MATRIX EXCHANGE =  0.12287172    
     PIPE RECHARGE =   108.00000          PIPE RECHARGE =  0.20000000    
       PFP STORAGE =   0.0000000            PFP STORAGE =   0.0000000    

     CUMULATIVE IN =   174.33839               TOTAL IN =  0.32287172    

           OUT:                               OUT:
     CONSTANT HEAD =   174.33839          CONSTANT HEAD =  0.32287172    
   MATRIX EXCHANGE =   0.0000000        MATRIX EXCHANGE =   0.0000000    
     PIPE RECHARGE =   0.0000000          PIPE RECHARGE =   0.0000000    
       PFP STORAGE =   0.0000000            PFP STORAGE =   0.0000000    

    CUMULATIVE OUT =   174.33839              TOTAL OUT =  0.32287172    

          IN - OUT =  0.13563536E-07           IN - OUT = -0.87785221E-09
     PERCENT ERROR =  0.00                PERCENT ERROR =  0.00


 
 ------------------------NODE WATER BUDGET-----------------------
  STRESS PERIOD           5  TIME STEP           9
 TOTAL SIMULATION TIME   490.000000000000     
 
 FLOW TO THE NODE IN M^3/D
 
 NODE   FIXED HEAD     RECHARGE        QWELL  MATRIX EXCH      STORAGE      TUBE_IN     TUBE_OUT         CADS     FHLQ(LQ)       CAUCHY   CAUCHY(LQ)          QLH     IN - OUT
   1     0.0000       0.0000       0.0000      0.14041E-01   0.0000       0.0000     -0.14041E-01   0.0000       0.0000       0.0000       0.0000       0.0000      0.13471E-09
   2   -0.32287       0.0000       0.0000       0.0000       0.0000      0.32287       0.0000       0.0000       0.0000       0.0000       0.0000       0.0000       0.0000    
   3     0.0000       0.0000       0.0000      0.40123E-01   0.0000      0.28275     -0.32287       0.0000       0.0000       0.0000       0.0000       0.0000     -0.32966E-08
   4     0.0000      0.20000       0.0000      0.41693E-01   0.0000      0.27015E-01 -0.26871       0.0000       0.0000       0.0000       0.0000       0.0000      0.27220E-08
   5     0.0000       0.0000       0.0000      0.27015E-01   0.0000       0.0000     -0.27015E-01   0.0000       0.0000       0.0000       0.0000       0.0000     -0.43794E-09
 
 SOLVING FOR HEAD 
MODFLOW ITER.#  NEWTON-RAPHSON ITER.#   MAXIMUM NODE HEAD CHANGE
         1                   1                  0.0000000000
         1                   2                  0.0000000000
         1                   3                  0.0000000000
     1 CALLS TO PCG ROUTINE FOR TIME STEP  10 IN STRESS PERIOD    5
     1 TOTAL ITERATIONS

 MAXIMUM HEAD CHANGE FOR EACH ITERATION (1 INDICATES THE FIRST INNER ITERATION):

    HEAD CHANGE    HEAD CHANGE    HEAD CHANGE    HEAD CHANGE    HEAD CHANGE 
   LAYER,ROW,COL  LAYER,ROW,COL  LAYER,ROW,COL  LAYER,ROW,COL  LAYER,ROW,COL
 ---------------------------------------------------------------------------
  1 -0.9737E-10
   (  3,  1,  4)

 MAXIMUM RESIDUAL FOR EACH ITERATION (1 INDICATES THE FIRST INNER ITERATION):

    RESIDUAL       RESIDUAL       RESIDUAL       RESIDUAL       RESIDUAL    
   LAYER,ROW,COL  LAYER,ROW,COL  LAYER,ROW,COL  LAYER,ROW,COL  LAYER,ROW,COL
 ---------------------------------------------------------------------------
  1  0.6132E-07
   (  3,  2,  3)


MODFLOW ITER.#  NEWTON-RAPHSON ITER.#   MAXIMUM NODE HEAD CHANGE
         1                   1                  0.0000000000
         1                   2                  0.0000000000
         1                   3                  0.0000000000

 NO OUTPUT CONTROL FOR STRESS PERIOD    5   TIME STEP  10
 
 
 CFPM1 CRITERION OF CONVERGENCE:     0.1000000E-05
 CFPM1 MAXIMUM NUMBER OF ITERATIONS:   100
 
 
 CFPM1 RESULTS +++++++++++++++++++++++++++++++++++++++++++++++++++++++
 
 STRESS PERIOD/TIME STEP           5          10
 
NUMBER OF NEWTON RHAPSON ITERATIONS:     3
 
 ------- RESULTS OF FLOW CALCULATION -------
 
NODE# NODE HEAD[M] MATRIX HEAD [M] EXCHANGE [M^3/D]    CADSFLOW            PFPSFLOW         DIRECT RECHARGE        QWELL         FHLQ            CAUCHY         CAUCHY LQ               QLH              QFIX
    1  20.00000      20.00018       -0.1404098E-01       0.000000           0.000000           0.000000        0.000000         0.000000         0.000000         0.000000         0.000000         0.000000    
    2  20.00    FIX  20.00000           0.0000           0.000000           0.000000           0.000000        0.000000         0.000000         0.000000         0.000000         0.000000       -0.3228717    
    3  20.00000      20.00017       -0.4012309E-01       0.000000           0.000000           0.000000        0.000000         0.000000         0.000000         0.000000         0.000000         0.000000    
    4  20.00000      20.00027       -0.4169275E-01       0.000000           0.000000          0.2000000        0.000000         0.000000         0.000000         0.000000         0.000000         0.000000    
    5  20.00000      20.00034       -0.2701490E-01       0.000000           0.000000           0.000000        0.000000         0.000000         0.000000         0.000000         0.000000         0.000000    
 
TUBE  B  E  FLOW          Q [M^3/D]       DIAM.[M]        LEN.[M]        RE         RESIDENCE TIME [D]
   1   1   3   LAMI.         0.01404        0.10000       10.00000        2.31681        5.59361
   2   2   3   TURB.        -0.32287        0.10000       10.00000       53.27482        0.24325
   3   3   4   TURB.        -0.26871        0.10000       10.00000       44.33759        0.29229
   4   4   5   LAMI.        -0.02701        0.10000       10.00000        4.45754        2.90728
 

    BUDGET OF THE PIPE SYSTEM OF TIMESTEP   10 IN STRESS PERIOD    5
------------------------------------------------------------------------

  TOTAL SIMULATION TIME   500.000000000000      S
 
       CUMULATIVE VALUES (L**3)           RATES THIS TIME STEP (L**3/T)

            IN:                               IN:
     CONSTANT HEAD =   0.0000000          CONSTANT HEAD =   0.0000000    
   MATRIX EXCHANGE =   67.567108        MATRIX EXCHANGE =  0.12287171    
     PIPE RECHARGE =   110.00000          PIPE RECHARGE =  0.20000000    
       PFP STORAGE =   0.0000000            PFP STORAGE =   0.0000000    

     CUMULATIVE IN =   177.56711               TOTAL IN =  0.32287171    

           OUT:                               OUT:
     CONSTANT HEAD =   177.56711          CONSTANT HEAD =  0.32287171    
   MATRIX EXCHANGE =   0.0000000        MATRIX EXCHANGE =   0.0000000    
     PIPE RECHARGE =   0.0000000          PIPE RECHARGE =   0.0000000    
       PFP STORAGE =   0.0000000            PFP STORAGE =   0.0000000    

    CUMULATIVE OUT =   177.56711              TOTAL OUT =  0.32287171    

          IN - OUT =  0.22657332E-07           IN - OUT =  0.90937875E-09
     PERCENT ERROR =  0.00                PERCENT ERROR =  0.00


 
 ------------------------NODE WATER BUDGET-----------------------
  STRESS PERIOD           5  TIME STEP          10
 TOTAL SIMULATION TIME   500.000000000000     
 
 FLOW TO THE NODE IN M^3/D
 
 NODE   FIXED HEAD     RECHARGE        QWELL  MATRIX EXCH      STORAGE      TUBE_IN     TUBE_OUT         CADS     FHLQ(LQ)       CAUCHY   CAUCHY(LQ)          QLH     IN - OUT
   1     0.0000       0.0000       0.0000      0.14041E-01   0.0000       0.0000     -0.14041E-01   0.0000       0.0000       0.0000       0.0000       0.0000     -0.30401E-09
   2   -0.32287       0.0000       0.0000       0.0000       0.0000      0.32287       0.0000       0.0000       0.0000       0.0000       0.0000       0.0000       0.0000    
   3     0.0000       0.0000       0.0000      0.40123E-01   0.0000      0.28275     -0.32287       0.0000       0.0000       0.0000       0.0000       0.0000      0.31695E-08
   4     0.0000      0.20000       0.0000      0.41693E-01   0.0000      0.27015E-01 -0.26871       0.0000       0.0000       0.0000       0.0000       0.0000     -0.24341E-08
   5     0.0000       0.0000       0.0000      0.27015E-01   0.0000       0.0000     -0.27015E-01   0.0000       0.0000       0.0000       0.0000       0.0000      0.47805E-09
1
  VOLUMETRIC BUDGET FOR ENTIRE MODEL AT END OF TIME STEP 10 IN STRESS PERIOD   5
  ------------------------------------------------------------------------------

     CUMULATIVE VOLUMES      L**3       RATES FOR THIS TIME STEP      L**3/T
     ------------------                 ------------------------

           IN:                                      IN:
           ---                                      ---
             STORAGE =       2.9002E-05               STORAGE =       2.1907E-13
       CONSTANT HEAD =           0.0000         CONSTANT HEAD =           0.0000
            RECHARGE =        1210.0000              RECHARGE =           2.2000
               PIPES =           0.0000                 PIPES =           0.0000

            TOTAL IN =        1210.0000              TOTAL IN =           2.2000

          OUT:                                     OUT:
          ----                                     ----
             STORAGE =       4.8336E-05               STORAGE =           0.0000
       CONSTANT HEAD =        1142.4329         CONSTANT HEAD =           2.0771
            RECHARGE =           0.0000              RECHARGE =           0.0000
               PIPES =          67.5671                 PIPES =           0.1229

           TOTAL OUT =        1210.0000             TOTAL OUT =           2.2000

            IN - OUT =       1.7114E-05              IN - OUT =      -4.7896E-07

 PERCENT DISCREPANCY =           0.00     PERCENT DISCREPANCY =           0.00






          TIME SUMMARY AT END OF TIME STEP  10 IN STRESS PERIOD    5
                    SECONDS     MINUTES      HOURS       DAYS        YEARS
                    -----------------------------------------------------------
   TIME STEP LENGTH 8.64000E+05  14400.      240.00      10.000     2.73785E-02
 STRESS PERIOD TIME 8.64000E+06 1.44000E+05  2400.0      100.00     0.27379    
         TOTAL TIME 4.32000E+07 7.20000E+05  12000.      500.00      1.3689    
1

 RUN END DATE AND TIME (YYYY/MM/DD HH:MM:SS): 2022/12/01  9:35:34
 ELAPSED RUN TIME:  0.084 SECONDS

