                                  MODFLOW-2005     
      U.S. GEOLOGICAL SURVEY MODULAR FINITE-DIFFERENCE GROUND-WATER FLOW MODEL
              VERSION 1.9.25 06/04/2013 CFPv2 HTM/STM/UMT-LNK/CADS

           THIS IS A RESEARCH VERSION OF CFP MODE 1 FOR TEST PURPOSES
                  WITHOUT ANY WARRANTY REGARDING CORRECTNESS

           CONTACT: THOMAS.REIMANN@TU-DRESDEN.DE / BSHOEMAK@USGS.GOV


 LIST FILE: CFPy_example_05.list
                         UNIT    2

 OPENING CFPy_example_05.dis
 FILE TYPE:DIS   UNIT   11   STATUS:OLD    
 FORMAT:FORMATTED              ACCESS:SEQUENTIAL          

 OPENING CFPy_example_05.bas
 FILE TYPE:BAS6   UNIT   13   STATUS:OLD    
 FORMAT:FORMATTED              ACCESS:SEQUENTIAL          

 OPENING CFPy_example_05.lpf
 FILE TYPE:LPF   UNIT   15   STATUS:OLD    
 FORMAT:FORMATTED              ACCESS:SEQUENTIAL          

 OPENING CFPy_example_05.oc
 FILE TYPE:OC   UNIT   14   STATUS:OLD    
 FORMAT:FORMATTED              ACCESS:SEQUENTIAL          

 OPENING CFPy_example_05.pcg
 FILE TYPE:PCG   UNIT   27   STATUS:OLD    
 FORMAT:FORMATTED              ACCESS:SEQUENTIAL          

 OPENING CFPy_example_05.rch
 FILE TYPE:RCH   UNIT   19   STATUS:OLD    
 FORMAT:FORMATTED              ACCESS:SEQUENTIAL          

 OPENING CFPy_example_05.hds
 FILE TYPE:DATA(BINARY)   UNIT   51   STATUS:REPLACE
 FORMAT:BINARY                 ACCESS:SEQUENTIAL          

 OPENING CFPy_example_05.cbc
 FILE TYPE:DATA(BINARY)   UNIT   50   STATUS:REPLACE
 FORMAT:BINARY                 ACCESS:SEQUENTIAL          

 OPENING CFPy_example_05.coc
 FILE TYPE:COC   UNIT   54   STATUS:OLD    
 FORMAT:FORMATTED              ACCESS:SEQUENTIAL          

 OPENING CFPy_example_05.cfp
 FILE TYPE:CFP   UNIT   52   STATUS:OLD    
 FORMAT:FORMATTED              ACCESS:SEQUENTIAL          

 OPENING CFPy_example_05.crch
 FILE TYPE:CRCH   UNIT   53   STATUS:OLD    
 FORMAT:FORMATTED              ACCESS:SEQUENTIAL          

 BAS -- BASIC PACKAGE, VERSION 7, 5/2/2005 INPUT READ FROM UNIT   13

 DISCRETIZATION INPUT DATA READ FROM UNIT   11
 # DIS package for  MODFLOW-2005, generated by Flopy.
    3 LAYERS         4 ROWS         4 COLUMNS
    5 STRESS PERIOD(S) IN SIMULATION
 MODEL TIME UNIT IS DAYS
 MODEL LENGTH UNIT IS METERS
  Confining bed flag for each layer:
   0   0   0

                     DELR =   10.0000    

                     DELC =   10.0000    



           TOP ELEVATION OF LAYER 1
 READING ON UNIT   11 WITH FORMAT: (4E15.6)            



             MODEL LAYER BOTTOM EL. FOR LAYER   1
 READING ON UNIT   11 WITH FORMAT: (4E15.6)            



             MODEL LAYER BOTTOM EL. FOR LAYER   2
 READING ON UNIT   11 WITH FORMAT: (4E15.6)            



             MODEL LAYER BOTTOM EL. FOR LAYER   3
 READING ON UNIT   11 WITH FORMAT: (4E15.6)            


 STRESS PERIOD     LENGTH       TIME STEPS     MULTIPLIER FOR DELT    SS FLAG
 ----------------------------------------------------------------------------
        1         100.0000         10                    1.000         TR
        2         100.0000         10                    1.000         TR
        3         100.0000         10                    1.000         TR
        4         100.0000         10                    1.000         TR
        5         100.0000         10                    1.000         TR

 TRANSIENT SIMULATION



 
 # BAS6 package for  MODFLOW-2005, generated by Flopy.                           
 THE FREE FORMAT OPTION HAS BEEN SELECTED



                     BOUNDARY ARRAY FOR LAYER   1
 READING ON UNIT   13 WITH FORMAT: (4I10)              



                     BOUNDARY ARRAY FOR LAYER   2
 READING ON UNIT   13 WITH FORMAT: (4I10)              



                     BOUNDARY ARRAY FOR LAYER   3
 READING ON UNIT   13 WITH FORMAT: (4I10)              

 AQUIFER HEAD WILL BE SET TO  -999.99     AT ALL NO-FLOW NODES (IBOUND=0).



                       INITIAL HEAD FOR LAYER   1
 READING ON UNIT   13 WITH FORMAT: (4E15.6)            



                       INITIAL HEAD FOR LAYER   2
 READING ON UNIT   13 WITH FORMAT: (4E15.6)            



                       INITIAL HEAD FOR LAYER   3
 READING ON UNIT   13 WITH FORMAT: (4E15.6)            
 # OC package for  MODFLOW-2005, generated by Flopy.

 OUTPUT CONTROL IS SPECIFIED ONLY AT TIME STEPS FOR WHICH OUTPUT IS DESIRED
 COMPACT CELL-BY-CELL BUDGET FILES WILL BE WRITTEN
 AUXILIARY DATA WILL BE SAVED IN CELL-BY-CELL BUDGET FILES
 HEAD PRINT FORMAT CODE IS   0    DRAWDOWN PRINT FORMAT CODE IS   0
 HEADS WILL BE SAVED ON UNIT   51    DRAWDOWNS WILL BE SAVED ON UNIT    0

 LPF -- LAYER-PROPERTY FLOW PACKAGE, VERSION 7, 5/2/2005
         INPUT READ FROM UNIT   15
 # LPF package for  MODFLOW-2005, generated by Flopy.
 HEAD AT CELLS THAT CONVERT TO DRY= -1.00000E+30
 No named parameters

   LAYER FLAGS:
 LAYER       LAYTYP        LAYAVG         CHANI        LAYVKA        LAYWET
 ---------------------------------------------------------------------------
    1             1             0     1.000E+00             0             0
    2             1             0     1.000E+00             0             0
    3             1             0     1.000E+00             0             0

   INTERPRETATION OF LAYER FLAGS:
                        INTERBLOCK     HORIZONTAL    DATA IN
         LAYER TYPE   TRANSMISSIVITY   ANISOTROPY   ARRAY VKA   WETTABILITY
 LAYER      (LAYTYP)      (LAYAVG)       (CHANI)      (LAYVKA)      (LAYWET)
 ---------------------------------------------------------------------------
    1   CONVERTIBLE      HARMONIC     1.000E+00    VERTICAL K  NON-WETTABLE
    2   CONVERTIBLE      HARMONIC     1.000E+00    VERTICAL K  NON-WETTABLE
    3   CONVERTIBLE      HARMONIC     1.000E+00    VERTICAL K  NON-WETTABLE

 WETTING CAPABILITY IS NOT ACTIVE IN ANY LAYER

    HYD. COND. ALONG ROWS =   1000.00     FOR LAYER   1

      VERTICAL HYD. COND. =   200.000     FOR LAYER   1

         SPECIFIC STORAGE =  2.000000E-05 FOR LAYER   1

           SPECIFIC YIELD =  0.200000     FOR LAYER   1

    HYD. COND. ALONG ROWS =   1000.00     FOR LAYER   2

      VERTICAL HYD. COND. =   200.000     FOR LAYER   2

         SPECIFIC STORAGE =  2.000000E-05 FOR LAYER   2

           SPECIFIC YIELD =  0.200000     FOR LAYER   2

    HYD. COND. ALONG ROWS =   1000.00     FOR LAYER   3

      VERTICAL HYD. COND. =   200.000     FOR LAYER   3

         SPECIFIC STORAGE =  2.000000E-05 FOR LAYER   3

           SPECIFIC YIELD =  0.200000     FOR LAYER   3

 RCH -- RECHARGE PACKAGE, VERSION 7, 5/2/2005 INPUT READ FROM UNIT   19
 # RCH package for  MODFLOW-2005, generated by Flopy.
 No named parameters
 OPTION 1 -- RECHARGE TO TOP LAYER
 CELL-BY-CELL FLOWS WILL BE SAVED ON UNIT   50


     0 Recharge parameters

 PCG -- CONJUGATE-GRADIENT SOLUTION PACKAGE, VERSION 7, 5/2/2005
 # PCG package for  MODFLOW-2005, generated by Flopy.
 MAXIMUM OF     20 CALLS OF SOLUTION ROUTINE
 MAXIMUM OF     10 INTERNAL ITERATIONS PER CALL TO SOLUTION ROUTINE
 MATRIX PRECONDITIONING TYPE :    1
 IHCOFADD option -- When an active cell is surrounded by dry cells, convert
 the cell to dry only if storage and head-dependent boundary flow are 0.



                                    SOLUTION BY THE CONJUGATE-GRADIENT METHOD
                                   -------------------------------------------
                    MAXIMUM NUMBER OF CALLS TO PCG ROUTINE =       20
                        MAXIMUM ITERATIONS PER CALL TO PCG =       10
                               MATRIX PRECONDITIONING TYPE =        1
        RELAXATION FACTOR (ONLY USED WITH PRECOND. TYPE 1) =    0.97000E+00
 PARAMETER OF POLYNOMIAL PRECOND. = 2 (2) OR IS CALCULATED :        2
                         HEAD CHANGE CRITERION FOR CLOSURE =    0.10000E-04
                     RESIDUAL CHANGE CRITERION FOR CLOSURE =    0.10000E-04
            PCG HEAD AND RESIDUAL CHANGE PRINTOUT INTERVAL =        5
     PRINTING FROM SOLVER IS LIMITED(1) OR SUPPRESSED (>1) =        0
                            STEADY-STATE DAMPING PARAMETER =    0.10000E+01
                               TRANSIENT DAMPING PARAMETER =    0.10000E+01
 
 CFP1AR READING FROM UNIT          52
 ---------------------------------
 CFP MODE 1 IS ACTIVE (PIPES) 
 ---------------------------------
 KEYWORD FBC ACTIVE
    NUMBER OF NODES IS     5
    NUMBER OF TUBES IS     4
    NUMBER OF LAYERS IS    3
 GRAVITATIONAL CONSTANT (G) COMPUTED 
 WATER TEMPERATURE, IN DEGREES CELCIUS, IS    25.0000000000000     
  KINEMATIC VISCOSITY [L^2/T]=  7.716459760582384E-002
 
  NBR-ARRAY: 
         1      2     2     1      3     0     0     0     0     0      1     0     0     0     0     0
         2      1     3     1      3     0     0     0     0     0      2     0     0     0     0     0
         3      2     3     1      1     4     2     0     0     0      1     3     2     0     0     0
         4      3     3     1      5     3     0     0     0     0      4     3     0     0     0     0
         5      4     3     1      4     0     0     0     0     0      4     0     0     0     0     0
 NBR ARRAY READ
  NODE ELEVATIONS:
           1   4.50000000000000     
           2   4.50000000000000     
           3   4.50000000000000     
           4   4.50000000000000     
           5   4.50000000000000     
 FINISHED READING NEWTON RAPHSON ITERATION CONTROLS
 READING NODE AND TUBE DATA
 NO_P  DIAMETER  TORTUOSITY  RHEIGHT  LCRITREY_P TCRITREY_P
   1.     0.100        1.00   0.0100       10.00      20.00
   2.     0.100        1.00   0.0100       10.00      20.00
   3.     0.100        1.00   0.0100       10.00      20.00
   4.     0.100        1.00   0.0100       10.00      20.00
 READING NODE BOUNDARY CONDITIONS (FIXED HEADS, IBOUNDS, AND FBCs)
  NODE  HEAD AND/OR IBOUND
    1   -1.0000
    2   20.0000 FHLQ, LQ:  0.0500
    3   -1.0000
    4   -1.0000 WELL
    5   -1.0000
    NUMBER OF FHLQ BCS IS     1
    NUMBER OF WELL BCS IS     1; THEREOF TD WELLS:    0
    NUMBER OF CAUCHY BCS IS   0; THEREOF TD BCS:    0
    NUMBER OF LH BCS IS       0
 SURFACE-AREA DEPENDENT EXCHANGE IS ACTIVE
 READING EXCHANGE COEFFICIENTS
 NODE I  K_EXCHANGE(I)
   1    5.000    
   2    5.000    
   3    5.000    
   4    5.000    
   5    5.000    
 READING CONDUIT OUTPUT CONTROL FROM UNIT          54
 NNODES             5
 TSNO               1
 TSNO               2
 TSNO               3
 TSNO               4
 TSNO               5
 NOTSNO             1
 NTUBES             4
 TSTU               1
 TSTU               2
 TSTU               3
 TSTU               4
 NOTSTU             1
 PROCESSING AND CHECKING CONDUIT-NETWORK
 TESTING THE CONDUIT NETWORK:
  NO ERRORS DETECTED           `:) 
  NO WARNINGS             `:)
 BEGINNING CFPM1 SUBROUTINE DETERM_TUB
 BEGINNING CFPM1 SUBROUTINE GEOCALC THAT CALCULATES XYZ COORDINATES OF NODES
 TOP-ARRAY / BOT-ARRAY:
   5.00000000000000             4.00000000000000     
   4.00000000000000             3.00000000000000     
   3.00000000000000             2.00000000000000     
  NODE   COLUMN    ROW    LAY      X         Y            Z      
      1      2      2      1     15.0000     15.0000     4.50000    
      2      1      3      1     5.00000     25.0000     4.50000    
      3      2      3      1     15.0000     25.0000     4.50000    
      4      3      3      1     25.0000     25.0000     4.50000    
      5      4      3      1     35.0000     25.0000     4.50000    
 
 BEGINNING CFPM1 LENGTH_CAL SUBROUTINE
 BEGINNING CFPM1 ROUGH_CAL SUBROUTINE
1
                            STRESS PERIOD NO.    1, LENGTH =   100.0000    
                            -----------------------------------------------

                              NUMBER OF TIME STEPS =    10

                               MULTIPLIER FOR DELT =     1.000

                            INITIAL TIME STEP SIZE =   10.00000    



                           RECHARGE
 READING ON UNIT   19 WITH FORMAT: (4E15.6)            
 
 CFP1RCH1RP SUBROUTINE READING FROM UNIT           53
 READING INPUT USED TO PARTICIAN RECHARGE AND WELL DATA
 0.0    0.0    0.0    1.0    0.0   
 DATA FOR WELLS:
 0.0    0.0    0.0   -.50    0.0   
 COMPUTE NODE LENGTH
 NODE I     L_NODE (I)
   1        5.000
   2        5.000
   3       15.000
   4       10.000
   5        5.000
 
 SOLVING FOR HEAD 
  LAMINAR PRECALCULATION
TUBE   2 SWITCH LAM -> TURB: LAM_RE (   32.89    ) >= TCRITREY:   20.00     TURB_RE:   99.83    
TUBE   3 SWITCH LAM -> TURB: LAM_RE (   32.93    ) >= TCRITREY:   20.00     TURB_RE:   99.92    
MODFLOW ITER.#  NEWTON-RAPHSON ITER.#   MAXIMUM NODE HEAD CHANGE
         1                   1                  0.0000018102
    SWITCH NODE  2 WITH Q   0.605030     TO LQ-FLOW WITH   0.500000E-01
    CHANGED    1 CONDUIT NODES DUE TO FHLQ IN STRESS PERIOD      1
         1                   2                  0.0002389307
    CHANGED    1 CONDUIT NODES DUE TO FHLQ IN STRESS PERIOD      1
         1                   3                  0.0000000230
MODFLOW ITER.#  NEWTON-RAPHSON ITER.#   MAXIMUM NODE HEAD CHANGE
         2                   1                  0.0002798419
    RESET NODE    2 FROM LQ TO FH WITH HEAD   20.0000    
    CHANGED    1 CONDUIT NODES DUE TO FHLQ IN STRESS PERIOD      1
TUBE   2 SWITCH TURB -> LAM: TURBREY (   7.502    ) <= LCRITREY:   10.00     LAM_RE:   1.003    
         2                   2                  0.0000410445
    CHANGED    1 CONDUIT NODES DUE TO FHLQ IN STRESS PERIOD      1
         2                   3                  0.0000000909
MODFLOW ITER.#  NEWTON-RAPHSON ITER.#   MAXIMUM NODE HEAD CHANGE
         3                   1                  0.0000000482
         3                   2                  0.0000000000
         3                   3                  0.0000000000


     3 CALLS TO PCG ROUTINE FOR TIME STEP   1 IN STRESS PERIOD    1
    19 TOTAL ITERATIONS
MODFLOW ITER.#  NEWTON-RAPHSON ITER.#   MAXIMUM NODE HEAD CHANGE
         3                   1                  0.0000000000
         3                   2                  0.0000000000
         3                   3                  0.0000000000

 OUTPUT CONTROL FOR STRESS PERIOD    1   TIME STEP   1
    SAVE HEAD FOR ALL LAYERS
 
 
 CFPM1 CRITERION OF CONVERGENCE:     0.1000000E-05
 CFPM1 MAXIMUM NUMBER OF ITERATIONS:   100
 
 
 CFPM1 RESULTS +++++++++++++++++++++++++++++++++++++++++++++++++++++++
 
 STRESS PERIOD/TIME STEP           1           1
 
NUMBER OF NEWTON RHAPSON ITERATIONS:     3
 
 ------- RESULTS OF FLOW CALCULATION -------
 
NODE# NODE HEAD[M] MATRIX HEAD [M] EXCHANGE [M^3/D]    CADSFLOW            PFPSFLOW         DIRECT RECHARGE        QWELL         FHLQ            CAUCHY         CAUCHY LQ               QLH              QFIX
    1  20.00000      20.00027       -0.2110262E-01       0.000000           0.000000           0.000000        0.000000         0.000000         0.000000         0.000000         0.000000         0.000000    
    2  20.00    FIX  20.00000           0.0000           0.000000           0.000000           0.000000        0.000000         0.000000         0.000000         0.000000         0.000000        0.1531199E-01
    3  20.00000      20.00026       -0.6030526E-01       0.000000           0.000000           0.000000        0.000000         0.000000         0.000000         0.000000         0.000000         0.000000    
    4  20.00000      20.00040       -0.6268498E-01       0.000000           0.000000          0.3000000       -.5000000         0.000000         0.000000         0.000000         0.000000         0.000000    
    5  20.00000      20.00052       -0.4059514E-01       0.000000           0.000000           0.000000        0.000000         0.000000         0.000000         0.000000         0.000000         0.000000    
 
TUBE  B  E  FLOW          Q [M^3/D]       DIAM.[M]        LEN.[M]        RE         RESIDENCE TIME [D]
   1   1   3   LAMI.         0.02110        0.10000       10.00000        3.48200        3.72180
   2   2   3   LAMI.         0.01531        0.10000       10.00000        2.52652        5.12930
   3   3   4   TURB.         0.09672        0.10000       10.00000       15.95908        0.81203
   4   4   5   LAMI.        -0.04060        0.10000       10.00000        6.69832        1.93471
 

    BUDGET OF THE PIPE SYSTEM OF TIMESTEP    1 IN STRESS PERIOD    1
------------------------------------------------------------------------

  TOTAL SIMULATION TIME   10.0000000000000      S
 
       CUMULATIVE VALUES (L**3)           RATES THIS TIME STEP (L**3/T)

            IN:                               IN:
     CONSTANT HEAD =  0.15311985          CONSTANT HEAD =  0.15311985E-01
      FHLQ BC (LQ) =   0.0000000           FHLQ BC (LQ) =   0.0000000    
   MATRIX EXCHANGE =   1.8468801        MATRIX EXCHANGE =  0.18468801    
     PIPE RECHARGE =   3.0000000          PIPE RECHARGE =  0.30000000    
           WELL BC =   0.0000000                WELL BC =   0.0000000    
       PFP STORAGE =   0.0000000            PFP STORAGE =   0.0000000    

     CUMULATIVE IN =   5.0000000               TOTAL IN =  0.50000000    

           OUT:                               OUT:
     CONSTANT HEAD =   0.0000000          CONSTANT HEAD =   0.0000000    
      FHLQ BC (LQ) =   0.0000000           FHLQ BC (LQ) =   0.0000000    
   MATRIX EXCHANGE =   0.0000000        MATRIX EXCHANGE =   0.0000000    
     PIPE RECHARGE =   0.0000000          PIPE RECHARGE =   0.0000000    
           WELL BC =   5.0000000                WELL BC =  0.50000000    
       PFP STORAGE =   0.0000000            PFP STORAGE =   0.0000000    

    CUMULATIVE OUT =   5.0000000              TOTAL OUT =  0.50000000    

          IN - OUT =  0.24884903E-08           IN - OUT =  0.24884905E-09
     PERCENT ERROR =  0.00                PERCENT ERROR =  0.00


 
 ------------------------NODE WATER BUDGET-----------------------
  STRESS PERIOD           1  TIME STEP           1
 TOTAL SIMULATION TIME   10.0000000000000     
 
 FLOW TO THE NODE IN M^3/D
 
 NODE   FIXED HEAD     RECHARGE        QWELL  MATRIX EXCH      STORAGE      TUBE_IN     TUBE_OUT         CADS     FHLQ(LQ)       CAUCHY   CAUCHY(LQ)          QLH     IN - OUT
   1     0.0000       0.0000       0.0000      0.21103E-01   0.0000       0.0000     -0.21103E-01   0.0000       0.0000       0.0000       0.0000       0.0000     -0.38117E-09
   2    0.15312E-01   0.0000       0.0000       0.0000       0.0000       0.0000     -0.15312E-01   0.0000       0.0000       0.0000       0.0000       0.0000       0.0000    
   3     0.0000       0.0000       0.0000      0.60305E-01   0.0000      0.36415E-01 -0.96720E-01   0.0000       0.0000       0.0000       0.0000       0.0000      0.27252E-08
   4     0.0000      0.30000     -0.50000      0.62685E-01   0.0000      0.13732       0.0000       0.0000       0.0000       0.0000       0.0000       0.0000     -0.18821E-08
   5     0.0000       0.0000       0.0000      0.40595E-01   0.0000       0.0000     -0.40595E-01   0.0000       0.0000       0.0000       0.0000       0.0000     -0.21313E-09
 TIME SERIES OUTPUT IN FILE NODE00000001.OUT
 TIME SERIES OUTPUT IN FILE NODE00000002.OUT
 TIME SERIES OUTPUT IN FILE NODE00000003.OUT
 TIME SERIES OUTPUT IN FILE NODE00000004.OUT
 TIME SERIES OUTPUT IN FILE NODE00000005.OUT
 TIME SERIES OUTPUT IN FILE TUBE00000001.OUT
 TIME SERIES OUTPUT IN FILE TUBE00000002.OUT
 TIME SERIES OUTPUT IN FILE TUBE00000003.OUT
 TIME SERIES OUTPUT IN FILE TUBE00000004.OUT

 HEAD WILL BE SAVED ON UNIT   51 AT END OF TIME STEP   1, STRESS PERIOD    1
 
 SOLVING FOR HEAD 
MODFLOW ITER.#  NEWTON-RAPHSON ITER.#   MAXIMUM NODE HEAD CHANGE
         1                   1                  0.0000000000
         1                   2                  0.0000000000
         1                   3                  0.0000000000
     1 CALLS TO PCG ROUTINE FOR TIME STEP   2 IN STRESS PERIOD    1
     1 TOTAL ITERATIONS
MODFLOW ITER.#  NEWTON-RAPHSON ITER.#   MAXIMUM NODE HEAD CHANGE
         1                   1                  0.0000000000
         1                   2                  0.0000000000
         1                   3                  0.0000000000

 NO OUTPUT CONTROL FOR STRESS PERIOD    1   TIME STEP   2
 
 
 CFPM1 CRITERION OF CONVERGENCE:     0.1000000E-05
 CFPM1 MAXIMUM NUMBER OF ITERATIONS:   100
 
 
 CFPM1 RESULTS +++++++++++++++++++++++++++++++++++++++++++++++++++++++
 
 STRESS PERIOD/TIME STEP           1           2
 
NUMBER OF NEWTON RHAPSON ITERATIONS:     3
 
 ------- RESULTS OF FLOW CALCULATION -------
 
NODE# NODE HEAD[M] MATRIX HEAD [M] EXCHANGE [M^3/D]    CADSFLOW            PFPSFLOW         DIRECT RECHARGE        QWELL         FHLQ            CAUCHY         CAUCHY LQ               QLH              QFIX
    1  20.00000      20.00027       -0.2110266E-01       0.000000           0.000000           0.000000        0.000000         0.000000         0.000000         0.000000         0.000000         0.000000    
    2  20.00    FIX  20.00000           0.0000           0.000000           0.000000           0.000000        0.000000         0.000000         0.000000         0.000000         0.000000        0.1531184E-01
    3  20.00000      20.00026       -0.6030536E-01       0.000000           0.000000           0.000000        0.000000         0.000000         0.000000         0.000000         0.000000         0.000000    
    4  20.00000      20.00040       -0.6268498E-01       0.000000           0.000000          0.3000000       -.5000000         0.000000         0.000000         0.000000         0.000000         0.000000    
    5  20.00000      20.00052       -0.4059516E-01       0.000000           0.000000           0.000000        0.000000         0.000000         0.000000         0.000000         0.000000         0.000000    
 
TUBE  B  E  FLOW          Q [M^3/D]       DIAM.[M]        LEN.[M]        RE         RESIDENCE TIME [D]
   1   1   3   LAMI.         0.02110        0.10000       10.00000        3.48200        3.72180
   2   2   3   LAMI.         0.01531        0.10000       10.00000        2.52650        5.12935
   3   3   4   TURB.         0.09672        0.10000       10.00000       15.95907        0.81203
   4   4   5   LAMI.        -0.04060        0.10000       10.00000        6.69833        1.93471
 

    BUDGET OF THE PIPE SYSTEM OF TIMESTEP    2 IN STRESS PERIOD    1
------------------------------------------------------------------------

  TOTAL SIMULATION TIME   20.0000000000000      S
 
       CUMULATIVE VALUES (L**3)           RATES THIS TIME STEP (L**3/T)

            IN:                               IN:
     CONSTANT HEAD =  0.30623827          CONSTANT HEAD =  0.15311841E-01
      FHLQ BC (LQ) =   0.0000000           FHLQ BC (LQ) =   0.0000000    
   MATRIX EXCHANGE =   3.6937617        MATRIX EXCHANGE =  0.18468816    
     PIPE RECHARGE =   6.0000000          PIPE RECHARGE =  0.30000000    
           WELL BC =   0.0000000                WELL BC =   0.0000000    
       PFP STORAGE =   0.0000000            PFP STORAGE =   0.0000000    

     CUMULATIVE IN =   10.000000               TOTAL IN =  0.50000000    

           OUT:                               OUT:
     CONSTANT HEAD =   0.0000000          CONSTANT HEAD =   0.0000000    
      FHLQ BC (LQ) =   0.0000000           FHLQ BC (LQ) =   0.0000000    
   MATRIX EXCHANGE =   0.0000000        MATRIX EXCHANGE =   0.0000000    
     PIPE RECHARGE =   0.0000000          PIPE RECHARGE =   0.0000000    
           WELL BC =   10.000000                WELL BC =  0.50000000    
       PFP STORAGE =   0.0000000            PFP STORAGE =   0.0000000    

    CUMULATIVE OUT =   10.000000              TOTAL OUT =  0.50000000    

          IN - OUT = -0.95520791E-09           IN - OUT = -0.34436981E-09
     PERCENT ERROR =  0.00                PERCENT ERROR =  0.00


 
 ------------------------NODE WATER BUDGET-----------------------
  STRESS PERIOD           1  TIME STEP           2
 TOTAL SIMULATION TIME   20.0000000000000     
 
 FLOW TO THE NODE IN M^3/D
 
 NODE   FIXED HEAD     RECHARGE        QWELL  MATRIX EXCH      STORAGE      TUBE_IN     TUBE_OUT         CADS     FHLQ(LQ)       CAUCHY   CAUCHY(LQ)          QLH     IN - OUT
   1     0.0000       0.0000       0.0000      0.21103E-01   0.0000       0.0000     -0.21103E-01   0.0000       0.0000       0.0000       0.0000       0.0000      0.50887E-09
   2    0.15312E-01   0.0000       0.0000       0.0000       0.0000       0.0000     -0.15312E-01   0.0000       0.0000       0.0000       0.0000       0.0000       0.0000    
   3     0.0000       0.0000       0.0000      0.60305E-01   0.0000      0.36415E-01 -0.96720E-01   0.0000       0.0000       0.0000       0.0000       0.0000     -0.43431E-08
   4     0.0000      0.30000     -0.50000      0.62685E-01   0.0000      0.13732       0.0000       0.0000       0.0000       0.0000       0.0000       0.0000      0.40058E-08
   5     0.0000       0.0000       0.0000      0.40595E-01   0.0000       0.0000     -0.40595E-01   0.0000       0.0000       0.0000       0.0000       0.0000     -0.51591E-09
 
 SOLVING FOR HEAD 
MODFLOW ITER.#  NEWTON-RAPHSON ITER.#   MAXIMUM NODE HEAD CHANGE
         1                   1                  0.0000000000
         1                   2                  0.0000000000
         1                   3                  0.0000000000
     1 CALLS TO PCG ROUTINE FOR TIME STEP   3 IN STRESS PERIOD    1
     1 TOTAL ITERATIONS
MODFLOW ITER.#  NEWTON-RAPHSON ITER.#   MAXIMUM NODE HEAD CHANGE
         1                   1                  0.0000000000
         1                   2                  0.0000000000
         1                   3                  0.0000000000

 NO OUTPUT CONTROL FOR STRESS PERIOD    1   TIME STEP   3
 
 
 CFPM1 CRITERION OF CONVERGENCE:     0.1000000E-05
 CFPM1 MAXIMUM NUMBER OF ITERATIONS:   100
 
 
 CFPM1 RESULTS +++++++++++++++++++++++++++++++++++++++++++++++++++++++
 
 STRESS PERIOD/TIME STEP           1           3
 
NUMBER OF NEWTON RHAPSON ITERATIONS:     3
 
 ------- RESULTS OF FLOW CALCULATION -------
 
NODE# NODE HEAD[M] MATRIX HEAD [M] EXCHANGE [M^3/D]    CADSFLOW            PFPSFLOW         DIRECT RECHARGE        QWELL         FHLQ            CAUCHY         CAUCHY LQ               QLH              QFIX
    1  20.00000      20.00027       -0.2110268E-01       0.000000           0.000000           0.000000        0.000000         0.000000         0.000000         0.000000         0.000000         0.000000    
    2  20.00    FIX  20.00000           0.0000           0.000000           0.000000           0.000000        0.000000         0.000000         0.000000         0.000000         0.000000        0.1531161E-01
    3  20.00000      20.00026       -0.6030544E-01       0.000000           0.000000           0.000000        0.000000         0.000000         0.000000         0.000000         0.000000         0.000000    
    4  20.00000      20.00040       -0.6268508E-01       0.000000           0.000000          0.3000000       -.5000000         0.000000         0.000000         0.000000         0.000000         0.000000    
    5  20.00000      20.00052       -0.4059519E-01       0.000000           0.000000           0.000000        0.000000         0.000000         0.000000         0.000000         0.000000         0.000000    
 
TUBE  B  E  FLOW          Q [M^3/D]       DIAM.[M]        LEN.[M]        RE         RESIDENCE TIME [D]
   1   1   3   LAMI.         0.02110        0.10000       10.00000        3.48201        3.72179
   2   2   3   LAMI.         0.01531        0.10000       10.00000        2.52646        5.12943
   3   3   4   TURB.         0.09672        0.10000       10.00000       15.95905        0.81204
   4   4   5   LAMI.        -0.04060        0.10000       10.00000        6.69833        1.93471
 

    BUDGET OF THE PIPE SYSTEM OF TIMESTEP    3 IN STRESS PERIOD    1
------------------------------------------------------------------------

  TOTAL SIMULATION TIME   30.0000000000000      S
 
       CUMULATIVE VALUES (L**3)           RATES THIS TIME STEP (L**3/T)

            IN:                               IN:
     CONSTANT HEAD =  0.45935435          CONSTANT HEAD =  0.15311608E-01
      FHLQ BC (LQ) =   0.0000000           FHLQ BC (LQ) =   0.0000000    
   MATRIX EXCHANGE =   5.5406457        MATRIX EXCHANGE =  0.18468839    
     PIPE RECHARGE =   9.0000000          PIPE RECHARGE =  0.30000000    
           WELL BC =   0.0000000                WELL BC =   0.0000000    
       PFP STORAGE =   0.0000000            PFP STORAGE =   0.0000000    

     CUMULATIVE IN =   15.000000               TOTAL IN =  0.50000000    

           OUT:                               OUT:
     CONSTANT HEAD =   0.0000000          CONSTANT HEAD =   0.0000000    
      FHLQ BC (LQ) =   0.0000000           FHLQ BC (LQ) =   0.0000000    
   MATRIX EXCHANGE =   0.0000000        MATRIX EXCHANGE =   0.0000000    
     PIPE RECHARGE =   0.0000000          PIPE RECHARGE =   0.0000000    
           WELL BC =   15.000000                WELL BC =  0.50000000    
       PFP STORAGE =   0.0000000            PFP STORAGE =   0.0000000    

    CUMULATIVE OUT =   15.000000              TOTAL OUT =  0.50000000    

          IN - OUT = -0.27976004E-08           IN - OUT = -0.18423929E-09
     PERCENT ERROR =  0.00                PERCENT ERROR =  0.00


 
 ------------------------NODE WATER BUDGET-----------------------
  STRESS PERIOD           1  TIME STEP           3
 TOTAL SIMULATION TIME   30.0000000000000     
 
 FLOW TO THE NODE IN M^3/D
 
 NODE   FIXED HEAD     RECHARGE        QWELL  MATRIX EXCH      STORAGE      TUBE_IN     TUBE_OUT         CADS     FHLQ(LQ)       CAUCHY   CAUCHY(LQ)          QLH     IN - OUT
   1     0.0000       0.0000       0.0000      0.21103E-01   0.0000       0.0000     -0.21103E-01   0.0000       0.0000       0.0000       0.0000       0.0000      0.84810E-10
   2    0.15312E-01   0.0000       0.0000       0.0000       0.0000       0.0000     -0.15312E-01   0.0000       0.0000       0.0000       0.0000       0.0000       0.0000    
   3     0.0000       0.0000       0.0000      0.60305E-01   0.0000      0.36414E-01 -0.96720E-01   0.0000       0.0000       0.0000       0.0000       0.0000     -0.21869E-08
   4     0.0000      0.30000     -0.50000      0.62685E-01   0.0000      0.13731       0.0000       0.0000       0.0000       0.0000       0.0000       0.0000      0.24142E-08
   5     0.0000       0.0000       0.0000      0.40595E-01   0.0000       0.0000     -0.40595E-01   0.0000       0.0000       0.0000       0.0000       0.0000     -0.49638E-09
 
 SOLVING FOR HEAD 
MODFLOW ITER.#  NEWTON-RAPHSON ITER.#   MAXIMUM NODE HEAD CHANGE
         1                   1                  0.0000000000
         1                   2                  0.0000000000
         1                   3                  0.0000000000
     1 CALLS TO PCG ROUTINE FOR TIME STEP   4 IN STRESS PERIOD    1
     1 TOTAL ITERATIONS
MODFLOW ITER.#  NEWTON-RAPHSON ITER.#   MAXIMUM NODE HEAD CHANGE
         1                   1                  0.0000000000
         1                   2                  0.0000000000
         1                   3                  0.0000000000

 NO OUTPUT CONTROL FOR STRESS PERIOD    1   TIME STEP   4
 
 
 CFPM1 CRITERION OF CONVERGENCE:     0.1000000E-05
 CFPM1 MAXIMUM NUMBER OF ITERATIONS:   100
 
 
 CFPM1 RESULTS +++++++++++++++++++++++++++++++++++++++++++++++++++++++
 
 STRESS PERIOD/TIME STEP           1           4
 
NUMBER OF NEWTON RHAPSON ITERATIONS:     3
 
 ------- RESULTS OF FLOW CALCULATION -------
 
NODE# NODE HEAD[M] MATRIX HEAD [M] EXCHANGE [M^3/D]    CADSFLOW            PFPSFLOW         DIRECT RECHARGE        QWELL         FHLQ            CAUCHY         CAUCHY LQ               QLH              QFIX
    1  20.00000      20.00027       -0.2110269E-01       0.000000           0.000000           0.000000        0.000000         0.000000         0.000000         0.000000         0.000000         0.000000    
    2  20.00    FIX  20.00000           0.0000           0.000000           0.000000           0.000000        0.000000         0.000000         0.000000         0.000000         0.000000        0.1531155E-01
    3  20.00000      20.00026       -0.6030547E-01       0.000000           0.000000           0.000000        0.000000         0.000000         0.000000         0.000000         0.000000         0.000000    
    4  20.00000      20.00040       -0.6268509E-01       0.000000           0.000000          0.3000000       -.5000000         0.000000         0.000000         0.000000         0.000000         0.000000    
    5  20.00000      20.00052       -0.4059521E-01       0.000000           0.000000           0.000000        0.000000         0.000000         0.000000         0.000000         0.000000         0.000000    
 
TUBE  B  E  FLOW          Q [M^3/D]       DIAM.[M]        LEN.[M]        RE         RESIDENCE TIME [D]
   1   1   3   LAMI.         0.02110        0.10000       10.00000        3.48201        3.72179
   2   2   3   LAMI.         0.01531        0.10000       10.00000        2.52645        5.12945
   3   3   4   TURB.         0.09672        0.10000       10.00000       15.95905        0.81204
   4   4   5   LAMI.        -0.04060        0.10000       10.00000        6.69833        1.93471
 

    BUDGET OF THE PIPE SYSTEM OF TIMESTEP    4 IN STRESS PERIOD    1
------------------------------------------------------------------------

  TOTAL SIMULATION TIME   40.0000000000000      S
 
       CUMULATIVE VALUES (L**3)           RATES THIS TIME STEP (L**3/T)

            IN:                               IN:
     CONSTANT HEAD =  0.61246985          CONSTANT HEAD =  0.15311550E-01
      FHLQ BC (LQ) =   0.0000000           FHLQ BC (LQ) =   0.0000000    
   MATRIX EXCHANGE =   7.3875301        MATRIX EXCHANGE =  0.18468845    
     PIPE RECHARGE =   12.000000          PIPE RECHARGE =  0.30000000    
           WELL BC =   0.0000000                WELL BC =   0.0000000    
       PFP STORAGE =   0.0000000            PFP STORAGE =   0.0000000    

     CUMULATIVE IN =   20.000000               TOTAL IN =  0.50000000    

           OUT:                               OUT:
     CONSTANT HEAD =   0.0000000          CONSTANT HEAD =   0.0000000    
      FHLQ BC (LQ) =   0.0000000           FHLQ BC (LQ) =   0.0000000    
   MATRIX EXCHANGE =   0.0000000        MATRIX EXCHANGE =   0.0000000    
     PIPE RECHARGE =   0.0000000          PIPE RECHARGE =   0.0000000    
           WELL BC =   20.000000                WELL BC =  0.50000000    
       PFP STORAGE =   0.0000000            PFP STORAGE =   0.0000000    

    CUMULATIVE OUT =   20.000000              TOTAL OUT =  0.50000000    

          IN - OUT = -0.35034535E-08           IN - OUT = -0.70585371E-10
     PERCENT ERROR =  0.00                PERCENT ERROR =  0.00


 
 ------------------------NODE WATER BUDGET-----------------------
  STRESS PERIOD           1  TIME STEP           4
 TOTAL SIMULATION TIME   40.0000000000000     
 
 FLOW TO THE NODE IN M^3/D
 
 NODE   FIXED HEAD     RECHARGE        QWELL  MATRIX EXCH      STORAGE      TUBE_IN     TUBE_OUT         CADS     FHLQ(LQ)       CAUCHY   CAUCHY(LQ)          QLH     IN - OUT
   1     0.0000       0.0000       0.0000      0.21103E-01   0.0000       0.0000     -0.21103E-01   0.0000       0.0000       0.0000       0.0000       0.0000     -0.30118E-09
   2    0.15312E-01   0.0000       0.0000       0.0000       0.0000       0.0000     -0.15312E-01   0.0000       0.0000       0.0000       0.0000       0.0000       0.0000    
   3     0.0000       0.0000       0.0000      0.60305E-01   0.0000      0.36414E-01 -0.96720E-01   0.0000       0.0000       0.0000       0.0000       0.0000     -0.12936E-08
   4     0.0000      0.30000     -0.50000      0.62685E-01   0.0000      0.13731       0.0000       0.0000       0.0000       0.0000       0.0000       0.0000      0.20958E-08
   5     0.0000       0.0000       0.0000      0.40595E-01   0.0000       0.0000     -0.40595E-01   0.0000       0.0000       0.0000       0.0000       0.0000     -0.57156E-09
 
 SOLVING FOR HEAD 
MODFLOW ITER.#  NEWTON-RAPHSON ITER.#   MAXIMUM NODE HEAD CHANGE
         1                   1                  0.0000000000
         1                   2                  0.0000000000
         1                   3                  0.0000000000
     1 CALLS TO PCG ROUTINE FOR TIME STEP   5 IN STRESS PERIOD    1
     1 TOTAL ITERATIONS

 MAXIMUM HEAD CHANGE FOR EACH ITERATION (1 INDICATES THE FIRST INNER ITERATION):

    HEAD CHANGE    HEAD CHANGE    HEAD CHANGE    HEAD CHANGE    HEAD CHANGE 
   LAYER,ROW,COL  LAYER,ROW,COL  LAYER,ROW,COL  LAYER,ROW,COL  LAYER,ROW,COL
 ---------------------------------------------------------------------------
  1  0.1946E-09
   (  3,  3,  3)

 MAXIMUM RESIDUAL FOR EACH ITERATION (1 INDICATES THE FIRST INNER ITERATION):

    RESIDUAL       RESIDUAL       RESIDUAL       RESIDUAL       RESIDUAL    
   LAYER,ROW,COL  LAYER,ROW,COL  LAYER,ROW,COL  LAYER,ROW,COL  LAYER,ROW,COL
 ---------------------------------------------------------------------------
  1 -0.2589E-06
   (  3,  2,  4)


MODFLOW ITER.#  NEWTON-RAPHSON ITER.#   MAXIMUM NODE HEAD CHANGE
         1                   1                  0.0000000000
         1                   2                  0.0000000000
         1                   3                  0.0000000000

 NO OUTPUT CONTROL FOR STRESS PERIOD    1   TIME STEP   5
 
 
 CFPM1 CRITERION OF CONVERGENCE:     0.1000000E-05
 CFPM1 MAXIMUM NUMBER OF ITERATIONS:   100
 
 
 CFPM1 RESULTS +++++++++++++++++++++++++++++++++++++++++++++++++++++++
 
 STRESS PERIOD/TIME STEP           1           5
 
NUMBER OF NEWTON RHAPSON ITERATIONS:     3
 
 ------- RESULTS OF FLOW CALCULATION -------
 
NODE# NODE HEAD[M] MATRIX HEAD [M] EXCHANGE [M^3/D]    CADSFLOW            PFPSFLOW         DIRECT RECHARGE        QWELL         FHLQ            CAUCHY         CAUCHY LQ               QLH              QFIX
    1  20.00000      20.00027       -0.2110270E-01       0.000000           0.000000           0.000000        0.000000         0.000000         0.000000         0.000000         0.000000         0.000000    
    2  20.00    FIX  20.00000           0.0000           0.000000           0.000000           0.000000        0.000000         0.000000         0.000000         0.000000         0.000000        0.1531148E-01
    3  20.00000      20.00026       -0.6030549E-01       0.000000           0.000000           0.000000        0.000000         0.000000         0.000000         0.000000         0.000000         0.000000    
    4  20.00000      20.00040       -0.6268512E-01       0.000000           0.000000          0.3000000       -.5000000         0.000000         0.000000         0.000000         0.000000         0.000000    
    5  20.00000      20.00052       -0.4059521E-01       0.000000           0.000000           0.000000        0.000000         0.000000         0.000000         0.000000         0.000000         0.000000    
 
TUBE  B  E  FLOW          Q [M^3/D]       DIAM.[M]        LEN.[M]        RE         RESIDENCE TIME [D]
   1   1   3   LAMI.         0.02110        0.10000       10.00000        3.48201        3.72179
   2   2   3   LAMI.         0.01531        0.10000       10.00000        2.52644        5.12947
   3   3   4   TURB.         0.09672        0.10000       10.00000       15.95904        0.81204
   4   4   5   LAMI.        -0.04060        0.10000       10.00000        6.69833        1.93471
 

    BUDGET OF THE PIPE SYSTEM OF TIMESTEP    5 IN STRESS PERIOD    1
------------------------------------------------------------------------

  TOTAL SIMULATION TIME   50.0000000000000      S
 
       CUMULATIVE VALUES (L**3)           RATES THIS TIME STEP (L**3/T)

            IN:                               IN:
     CONSTANT HEAD =  0.76558464          CONSTANT HEAD =  0.15311479E-01
      FHLQ BC (LQ) =   0.0000000           FHLQ BC (LQ) =   0.0000000    
   MATRIX EXCHANGE =   9.2344154        MATRIX EXCHANGE =  0.18468852    
     PIPE RECHARGE =   15.000000          PIPE RECHARGE =  0.30000000    
           WELL BC =   0.0000000                WELL BC =   0.0000000    
       PFP STORAGE =   0.0000000            PFP STORAGE =   0.0000000    

     CUMULATIVE IN =   25.000000               TOTAL IN =  0.50000000    

           OUT:                               OUT:
     CONSTANT HEAD =   0.0000000          CONSTANT HEAD =   0.0000000    
      FHLQ BC (LQ) =   0.0000000           FHLQ BC (LQ) =   0.0000000    
   MATRIX EXCHANGE =   0.0000000        MATRIX EXCHANGE =   0.0000000    
     PIPE RECHARGE =   0.0000000          PIPE RECHARGE =   0.0000000    
           WELL BC =   25.000000                WELL BC =  0.50000000    
       PFP STORAGE =   0.0000000            PFP STORAGE =   0.0000000    

    CUMULATIVE OUT =   25.000000              TOTAL OUT =  0.50000000    

          IN - OUT = -0.68735044E-08           IN - OUT = -0.33700506E-09
     PERCENT ERROR =  0.00                PERCENT ERROR =  0.00


 
 ------------------------NODE WATER BUDGET-----------------------
  STRESS PERIOD           1  TIME STEP           5
 TOTAL SIMULATION TIME   50.0000000000000     
 
 FLOW TO THE NODE IN M^3/D
 
 NODE   FIXED HEAD     RECHARGE        QWELL  MATRIX EXCH      STORAGE      TUBE_IN     TUBE_OUT         CADS     FHLQ(LQ)       CAUCHY   CAUCHY(LQ)          QLH     IN - OUT
   1     0.0000       0.0000       0.0000      0.21103E-01   0.0000       0.0000     -0.21103E-01   0.0000       0.0000       0.0000       0.0000       0.0000      0.12538E-09
   2    0.15311E-01   0.0000       0.0000       0.0000       0.0000       0.0000     -0.15311E-01   0.0000       0.0000       0.0000       0.0000       0.0000       0.0000    
   3     0.0000       0.0000       0.0000      0.60305E-01   0.0000      0.36414E-01 -0.96720E-01   0.0000       0.0000       0.0000       0.0000       0.0000     -0.15759E-08
   4     0.0000      0.30000     -0.50000      0.62685E-01   0.0000      0.13731       0.0000       0.0000       0.0000       0.0000       0.0000       0.0000      0.76986E-09
   5     0.0000       0.0000       0.0000      0.40595E-01   0.0000       0.0000     -0.40595E-01   0.0000       0.0000       0.0000       0.0000       0.0000      0.34367E-09
 
 SOLVING FOR HEAD 
MODFLOW ITER.#  NEWTON-RAPHSON ITER.#   MAXIMUM NODE HEAD CHANGE
         1                   1                  0.0000000000
         1                   2                  0.0000000000
         1                   3                  0.0000000000
     1 CALLS TO PCG ROUTINE FOR TIME STEP   6 IN STRESS PERIOD    1
     1 TOTAL ITERATIONS
MODFLOW ITER.#  NEWTON-RAPHSON ITER.#   MAXIMUM NODE HEAD CHANGE
         1                   1                  0.0000000000
         1                   2                  0.0000000000
         1                   3                  0.0000000000

 NO OUTPUT CONTROL FOR STRESS PERIOD    1   TIME STEP   6
 
 
 CFPM1 CRITERION OF CONVERGENCE:     0.1000000E-05
 CFPM1 MAXIMUM NUMBER OF ITERATIONS:   100
 
 
 CFPM1 RESULTS +++++++++++++++++++++++++++++++++++++++++++++++++++++++
 
 STRESS PERIOD/TIME STEP           1           6
 
NUMBER OF NEWTON RHAPSON ITERATIONS:     3
 
 ------- RESULTS OF FLOW CALCULATION -------
 
NODE# NODE HEAD[M] MATRIX HEAD [M] EXCHANGE [M^3/D]    CADSFLOW            PFPSFLOW         DIRECT RECHARGE        QWELL         FHLQ            CAUCHY         CAUCHY LQ               QLH              QFIX
    1  20.00000      20.00027       -0.2110270E-01       0.000000           0.000000           0.000000        0.000000         0.000000         0.000000         0.000000         0.000000         0.000000    
    2  20.00    FIX  20.00000           0.0000           0.000000           0.000000           0.000000        0.000000         0.000000         0.000000         0.000000         0.000000        0.1531145E-01
    3  20.00000      20.00026       -0.6030550E-01       0.000000           0.000000           0.000000        0.000000         0.000000         0.000000         0.000000         0.000000         0.000000    
    4  20.00000      20.00040       -0.6268512E-01       0.000000           0.000000          0.3000000       -.5000000         0.000000         0.000000         0.000000         0.000000         0.000000    
    5  20.00000      20.00052       -0.4059522E-01       0.000000           0.000000           0.000000        0.000000         0.000000         0.000000         0.000000         0.000000         0.000000    
 
TUBE  B  E  FLOW          Q [M^3/D]       DIAM.[M]        LEN.[M]        RE         RESIDENCE TIME [D]
   1   1   3   LAMI.         0.02110        0.10000       10.00000        3.48201        3.72179
   2   2   3   LAMI.         0.01531        0.10000       10.00000        2.52644        5.12948
   3   3   4   TURB.         0.09672        0.10000       10.00000       15.95904        0.81204
   4   4   5   LAMI.        -0.04060        0.10000       10.00000        6.69834        1.93471
 

    BUDGET OF THE PIPE SYSTEM OF TIMESTEP    6 IN STRESS PERIOD    1
------------------------------------------------------------------------

  TOTAL SIMULATION TIME   60.0000000000000      S
 
       CUMULATIVE VALUES (L**3)           RATES THIS TIME STEP (L**3/T)

            IN:                               IN:
     CONSTANT HEAD =  0.91869917          CONSTANT HEAD =  0.15311453E-01
      FHLQ BC (LQ) =   0.0000000           FHLQ BC (LQ) =   0.0000000    
   MATRIX EXCHANGE =   11.081301        MATRIX EXCHANGE =  0.18468855    
     PIPE RECHARGE =   18.000000          PIPE RECHARGE =  0.30000000    
           WELL BC =   0.0000000                WELL BC =   0.0000000    
       PFP STORAGE =   0.0000000            PFP STORAGE =   0.0000000    

     CUMULATIVE IN =   30.000000               TOTAL IN =  0.50000000    

           OUT:                               OUT:
     CONSTANT HEAD =   0.0000000          CONSTANT HEAD =   0.0000000    
      FHLQ BC (LQ) =   0.0000000           FHLQ BC (LQ) =   0.0000000    
   MATRIX EXCHANGE =   0.0000000        MATRIX EXCHANGE =   0.0000000    
     PIPE RECHARGE =   0.0000000          PIPE RECHARGE =   0.0000000    
           WELL BC =   30.000000                WELL BC =  0.50000000    
       PFP STORAGE =   0.0000000            PFP STORAGE =   0.0000000    

    CUMULATIVE OUT =   30.000000              TOTAL OUT =  0.50000000    

          IN - OUT = -0.76613009E-08           IN - OUT = -0.78779733E-10
     PERCENT ERROR =  0.00                PERCENT ERROR =  0.00


 
 ------------------------NODE WATER BUDGET-----------------------
  STRESS PERIOD           1  TIME STEP           6
 TOTAL SIMULATION TIME   60.0000000000000     
 
 FLOW TO THE NODE IN M^3/D
 
 NODE   FIXED HEAD     RECHARGE        QWELL  MATRIX EXCH      STORAGE      TUBE_IN     TUBE_OUT         CADS     FHLQ(LQ)       CAUCHY   CAUCHY(LQ)          QLH     IN - OUT
   1     0.0000       0.0000       0.0000      0.21103E-01   0.0000       0.0000     -0.21103E-01   0.0000       0.0000       0.0000       0.0000       0.0000      0.29007E-09
   2    0.15311E-01   0.0000       0.0000       0.0000       0.0000       0.0000     -0.15311E-01   0.0000       0.0000       0.0000       0.0000       0.0000       0.0000    
   3     0.0000       0.0000       0.0000      0.60306E-01   0.0000      0.36414E-01 -0.96720E-01   0.0000       0.0000       0.0000       0.0000       0.0000      0.12933E-08
   4     0.0000      0.30000     -0.50000      0.62685E-01   0.0000      0.13731       0.0000       0.0000       0.0000       0.0000       0.0000       0.0000     -0.24063E-08
   5     0.0000       0.0000       0.0000      0.40595E-01   0.0000       0.0000     -0.40595E-01   0.0000       0.0000       0.0000       0.0000       0.0000      0.74412E-09
 
 SOLVING FOR HEAD 
MODFLOW ITER.#  NEWTON-RAPHSON ITER.#   MAXIMUM NODE HEAD CHANGE
         1                   1                  0.0000000000
         1                   2                  0.0000000000
         1                   3                  0.0000000000
     1 CALLS TO PCG ROUTINE FOR TIME STEP   7 IN STRESS PERIOD    1
     1 TOTAL ITERATIONS
MODFLOW ITER.#  NEWTON-RAPHSON ITER.#   MAXIMUM NODE HEAD CHANGE
         1                   1                  0.0000000000
         1                   2                  0.0000000000
         1                   3                  0.0000000000

 NO OUTPUT CONTROL FOR STRESS PERIOD    1   TIME STEP   7
 
 
 CFPM1 CRITERION OF CONVERGENCE:     0.1000000E-05
 CFPM1 MAXIMUM NUMBER OF ITERATIONS:   100
 
 
 CFPM1 RESULTS +++++++++++++++++++++++++++++++++++++++++++++++++++++++
 
 STRESS PERIOD/TIME STEP           1           7
 
NUMBER OF NEWTON RHAPSON ITERATIONS:     3
 
 ------- RESULTS OF FLOW CALCULATION -------
 
NODE# NODE HEAD[M] MATRIX HEAD [M] EXCHANGE [M^3/D]    CADSFLOW            PFPSFLOW         DIRECT RECHARGE        QWELL         FHLQ            CAUCHY         CAUCHY LQ               QLH              QFIX
    1  20.00000      20.00027       -0.2110271E-01       0.000000           0.000000           0.000000        0.000000         0.000000         0.000000         0.000000         0.000000         0.000000    
    2  20.00    FIX  20.00000           0.0000           0.000000           0.000000           0.000000        0.000000         0.000000         0.000000         0.000000         0.000000        0.1531143E-01
    3  20.00000      20.00026       -0.6030551E-01       0.000000           0.000000           0.000000        0.000000         0.000000         0.000000         0.000000         0.000000         0.000000    
    4  20.00000      20.00040       -0.6268513E-01       0.000000           0.000000          0.3000000       -.5000000         0.000000         0.000000         0.000000         0.000000         0.000000    
    5  20.00000      20.00052       -0.4059522E-01       0.000000           0.000000           0.000000        0.000000         0.000000         0.000000         0.000000         0.000000         0.000000    
 
TUBE  B  E  FLOW          Q [M^3/D]       DIAM.[M]        LEN.[M]        RE         RESIDENCE TIME [D]
   1   1   3   LAMI.         0.02110        0.10000       10.00000        3.48201        3.72179
   2   2   3   LAMI.         0.01531        0.10000       10.00000        2.52643        5.12949
   3   3   4   TURB.         0.09672        0.10000       10.00000       15.95904        0.81204
   4   4   5   LAMI.        -0.04060        0.10000       10.00000        6.69834        1.93471
 

    BUDGET OF THE PIPE SYSTEM OF TIMESTEP    7 IN STRESS PERIOD    1
------------------------------------------------------------------------

  TOTAL SIMULATION TIME   70.0000000000000      S
 
       CUMULATIVE VALUES (L**3)           RATES THIS TIME STEP (L**3/T)

            IN:                               IN:
     CONSTANT HEAD =   1.0718135          CONSTANT HEAD =  0.15311428E-01
      FHLQ BC (LQ) =   0.0000000           FHLQ BC (LQ) =   0.0000000    
   MATRIX EXCHANGE =   12.928187        MATRIX EXCHANGE =  0.18468857    
     PIPE RECHARGE =   21.000000          PIPE RECHARGE =  0.30000000    
           WELL BC =   0.0000000                WELL BC =   0.0000000    
       PFP STORAGE =   0.0000000            PFP STORAGE =   0.0000000    

     CUMULATIVE IN =   35.000000               TOTAL IN =  0.50000000    

           OUT:                               OUT:
     CONSTANT HEAD =   0.0000000          CONSTANT HEAD =   0.0000000    
      FHLQ BC (LQ) =   0.0000000           FHLQ BC (LQ) =   0.0000000    
   MATRIX EXCHANGE =   0.0000000        MATRIX EXCHANGE =   0.0000000    
     PIPE RECHARGE =   0.0000000          PIPE RECHARGE =   0.0000000    
           WELL BC =   35.000000                WELL BC =  0.50000000    
       PFP STORAGE =   0.0000000            PFP STORAGE =   0.0000000    

    CUMULATIVE OUT =   35.000000              TOTAL OUT =  0.50000000    

          IN - OUT = -0.10557335E-07           IN - OUT = -0.28960292E-09
     PERCENT ERROR =  0.00                PERCENT ERROR =  0.00


 
 ------------------------NODE WATER BUDGET-----------------------
  STRESS PERIOD           1  TIME STEP           7
 TOTAL SIMULATION TIME   70.0000000000000     
 
 FLOW TO THE NODE IN M^3/D
 
 NODE   FIXED HEAD     RECHARGE        QWELL  MATRIX EXCH      STORAGE      TUBE_IN     TUBE_OUT         CADS     FHLQ(LQ)       CAUCHY   CAUCHY(LQ)          QLH     IN - OUT
   1     0.0000       0.0000       0.0000      0.21103E-01   0.0000       0.0000     -0.21103E-01   0.0000       0.0000       0.0000       0.0000       0.0000      0.80299E-10
   2    0.15311E-01   0.0000       0.0000       0.0000       0.0000       0.0000     -0.15311E-01   0.0000       0.0000       0.0000       0.0000       0.0000       0.0000    
   3     0.0000       0.0000       0.0000      0.60306E-01   0.0000      0.36414E-01 -0.96720E-01   0.0000       0.0000       0.0000       0.0000       0.0000     -0.32948E-08
   4     0.0000      0.30000     -0.50000      0.62685E-01   0.0000      0.13731       0.0000       0.0000       0.0000       0.0000       0.0000       0.0000      0.33277E-08
   5     0.0000       0.0000       0.0000      0.40595E-01   0.0000       0.0000     -0.40595E-01   0.0000       0.0000       0.0000       0.0000       0.0000     -0.40283E-09
 
 SOLVING FOR HEAD 
MODFLOW ITER.#  NEWTON-RAPHSON ITER.#   MAXIMUM NODE HEAD CHANGE
         1                   1                  0.0000000000
         1                   2                  0.0000000000
         1                   3                  0.0000000000
     1 CALLS TO PCG ROUTINE FOR TIME STEP   8 IN STRESS PERIOD    1
     1 TOTAL ITERATIONS
MODFLOW ITER.#  NEWTON-RAPHSON ITER.#   MAXIMUM NODE HEAD CHANGE
         1                   1                  0.0000000000
         1                   2                  0.0000000000
         1                   3                  0.0000000000

 NO OUTPUT CONTROL FOR STRESS PERIOD    1   TIME STEP   8
 
 
 CFPM1 CRITERION OF CONVERGENCE:     0.1000000E-05
 CFPM1 MAXIMUM NUMBER OF ITERATIONS:   100
 
 
 CFPM1 RESULTS +++++++++++++++++++++++++++++++++++++++++++++++++++++++
 
 STRESS PERIOD/TIME STEP           1           8
 
NUMBER OF NEWTON RHAPSON ITERATIONS:     3
 
 ------- RESULTS OF FLOW CALCULATION -------
 
NODE# NODE HEAD[M] MATRIX HEAD [M] EXCHANGE [M^3/D]    CADSFLOW            PFPSFLOW         DIRECT RECHARGE        QWELL         FHLQ            CAUCHY         CAUCHY LQ               QLH              QFIX
    1  20.00000      20.00027       -0.2110271E-01       0.000000           0.000000           0.000000        0.000000         0.000000         0.000000         0.000000         0.000000         0.000000    
    2  20.00    FIX  20.00000           0.0000           0.000000           0.000000           0.000000        0.000000         0.000000         0.000000         0.000000         0.000000        0.1531142E-01
    3  20.00000      20.00026       -0.6030552E-01       0.000000           0.000000           0.000000        0.000000         0.000000         0.000000         0.000000         0.000000         0.000000    
    4  20.00000      20.00040       -0.6268513E-01       0.000000           0.000000          0.3000000       -.5000000         0.000000         0.000000         0.000000         0.000000         0.000000    
    5  20.00000      20.00052       -0.4059523E-01       0.000000           0.000000           0.000000        0.000000         0.000000         0.000000         0.000000         0.000000         0.000000    
 
TUBE  B  E  FLOW          Q [M^3/D]       DIAM.[M]        LEN.[M]        RE         RESIDENCE TIME [D]
   1   1   3   LAMI.         0.02110        0.10000       10.00000        3.48201        3.72179
   2   2   3   LAMI.         0.01531        0.10000       10.00000        2.52643        5.12949
   3   3   4   TURB.         0.09672        0.10000       10.00000       15.95904        0.81204
   4   4   5   LAMI.        -0.04060        0.10000       10.00000        6.69834        1.93471
 

    BUDGET OF THE PIPE SYSTEM OF TIMESTEP    8 IN STRESS PERIOD    1
------------------------------------------------------------------------

  TOTAL SIMULATION TIME   80.0000000000000      S
 
       CUMULATIVE VALUES (L**3)           RATES THIS TIME STEP (L**3/T)

            IN:                               IN:
     CONSTANT HEAD =   1.2249276          CONSTANT HEAD =  0.15311417E-01
      FHLQ BC (LQ) =   0.0000000           FHLQ BC (LQ) =   0.0000000    
   MATRIX EXCHANGE =   14.775072        MATRIX EXCHANGE =  0.18468858    
     PIPE RECHARGE =   24.000000          PIPE RECHARGE =  0.30000000    
           WELL BC =   0.0000000                WELL BC =   0.0000000    
       PFP STORAGE =   0.0000000            PFP STORAGE =   0.0000000    

     CUMULATIVE IN =   40.000000               TOTAL IN =  0.50000000    

           OUT:                               OUT:
     CONSTANT HEAD =   0.0000000          CONSTANT HEAD =   0.0000000    
      FHLQ BC (LQ) =   0.0000000           FHLQ BC (LQ) =   0.0000000    
   MATRIX EXCHANGE =   0.0000000        MATRIX EXCHANGE =   0.0000000    
     PIPE RECHARGE =   0.0000000          PIPE RECHARGE =   0.0000000    
           WELL BC =   40.000000                WELL BC =  0.50000000    
       PFP STORAGE =   0.0000000            PFP STORAGE =   0.0000000    

    CUMULATIVE OUT =   40.000000              TOTAL OUT =  0.50000000    

          IN - OUT = -0.13188400E-07           IN - OUT = -0.26310651E-09
     PERCENT ERROR =  0.00                PERCENT ERROR =  0.00


 
 ------------------------NODE WATER BUDGET-----------------------
  STRESS PERIOD           1  TIME STEP           8
 TOTAL SIMULATION TIME   80.0000000000000     
 
 FLOW TO THE NODE IN M^3/D
 
 NODE   FIXED HEAD     RECHARGE        QWELL  MATRIX EXCH      STORAGE      TUBE_IN     TUBE_OUT         CADS     FHLQ(LQ)       CAUCHY   CAUCHY(LQ)          QLH     IN - OUT
   1     0.0000       0.0000       0.0000      0.21103E-01   0.0000       0.0000     -0.21103E-01   0.0000       0.0000       0.0000       0.0000       0.0000      0.60803E-09
   2    0.15311E-01   0.0000       0.0000       0.0000       0.0000       0.0000     -0.15311E-01   0.0000       0.0000       0.0000       0.0000       0.0000       0.0000    
   3     0.0000       0.0000       0.0000      0.60306E-01   0.0000      0.36414E-01 -0.96720E-01   0.0000       0.0000       0.0000       0.0000       0.0000     -0.40474E-08
   4     0.0000      0.30000     -0.50000      0.62685E-01   0.0000      0.13731       0.0000       0.0000       0.0000       0.0000       0.0000       0.0000      0.34438E-08
   5     0.0000       0.0000       0.0000      0.40595E-01   0.0000       0.0000     -0.40595E-01   0.0000       0.0000       0.0000       0.0000       0.0000     -0.26752E-09
 
 SOLVING FOR HEAD 
MODFLOW ITER.#  NEWTON-RAPHSON ITER.#   MAXIMUM NODE HEAD CHANGE
         1                   1                  0.0000000000
         1                   2                  0.0000000000
         1                   3                  0.0000000000
     1 CALLS TO PCG ROUTINE FOR TIME STEP   9 IN STRESS PERIOD    1
     1 TOTAL ITERATIONS
MODFLOW ITER.#  NEWTON-RAPHSON ITER.#   MAXIMUM NODE HEAD CHANGE
         1                   1                  0.0000000000
         1                   2                  0.0000000000
         1                   3                  0.0000000000

 NO OUTPUT CONTROL FOR STRESS PERIOD    1   TIME STEP   9
 
 
 CFPM1 CRITERION OF CONVERGENCE:     0.1000000E-05
 CFPM1 MAXIMUM NUMBER OF ITERATIONS:   100
 
 
 CFPM1 RESULTS +++++++++++++++++++++++++++++++++++++++++++++++++++++++
 
 STRESS PERIOD/TIME STEP           1           9
 
NUMBER OF NEWTON RHAPSON ITERATIONS:     3
 
 ------- RESULTS OF FLOW CALCULATION -------
 
NODE# NODE HEAD[M] MATRIX HEAD [M] EXCHANGE [M^3/D]    CADSFLOW            PFPSFLOW         DIRECT RECHARGE        QWELL         FHLQ            CAUCHY         CAUCHY LQ               QLH              QFIX
    1  20.00000      20.00027       -0.2110271E-01       0.000000           0.000000           0.000000        0.000000         0.000000         0.000000         0.000000         0.000000         0.000000    
    2  20.00    FIX  20.00000           0.0000           0.000000           0.000000           0.000000        0.000000         0.000000         0.000000         0.000000         0.000000        0.1531141E-01
    3  20.00000      20.00026       -0.6030552E-01       0.000000           0.000000           0.000000        0.000000         0.000000         0.000000         0.000000         0.000000         0.000000    
    4  20.00000      20.00040       -0.6268514E-01       0.000000           0.000000          0.3000000       -.5000000         0.000000         0.000000         0.000000         0.000000         0.000000    
    5  20.00000      20.00052       -0.4059523E-01       0.000000           0.000000           0.000000        0.000000         0.000000         0.000000         0.000000         0.000000         0.000000    
 
TUBE  B  E  FLOW          Q [M^3/D]       DIAM.[M]        LEN.[M]        RE         RESIDENCE TIME [D]
   1   1   3   LAMI.         0.02110        0.10000       10.00000        3.48201        3.72179
   2   2   3   LAMI.         0.01531        0.10000       10.00000        2.52643        5.12950
   3   3   4   TURB.         0.09672        0.10000       10.00000       15.95904        0.81204
   4   4   5   LAMI.        -0.04060        0.10000       10.00000        6.69834        1.93471
 

    BUDGET OF THE PIPE SYSTEM OF TIMESTEP    9 IN STRESS PERIOD    1
------------------------------------------------------------------------

  TOTAL SIMULATION TIME   90.0000000000000      S
 
       CUMULATIVE VALUES (L**3)           RATES THIS TIME STEP (L**3/T)

            IN:                               IN:
     CONSTANT HEAD =   1.3780417          CONSTANT HEAD =  0.15311408E-01
      FHLQ BC (LQ) =   0.0000000           FHLQ BC (LQ) =   0.0000000    
   MATRIX EXCHANGE =   16.621958        MATRIX EXCHANGE =  0.18468859    
     PIPE RECHARGE =   27.000000          PIPE RECHARGE =  0.30000000    
           WELL BC =   0.0000000                WELL BC =   0.0000000    
       PFP STORAGE =   0.0000000            PFP STORAGE =   0.0000000    

     CUMULATIVE IN =   45.000000               TOTAL IN =  0.50000000    

           OUT:                               OUT:
     CONSTANT HEAD =   0.0000000          CONSTANT HEAD =   0.0000000    
      FHLQ BC (LQ) =   0.0000000           FHLQ BC (LQ) =   0.0000000    
   MATRIX EXCHANGE =   0.0000000        MATRIX EXCHANGE =   0.0000000    
     PIPE RECHARGE =   0.0000000          PIPE RECHARGE =   0.0000000    
           WELL BC =   45.000000                WELL BC =  0.50000000    
       PFP STORAGE =   0.0000000            PFP STORAGE =   0.0000000    

    CUMULATIVE OUT =   45.000000              TOTAL OUT =  0.50000000    

          IN - OUT = -0.92417594E-08           IN - OUT =  0.39466364E-09
     PERCENT ERROR =  0.00                PERCENT ERROR =  0.00


 
 ------------------------NODE WATER BUDGET-----------------------
  STRESS PERIOD           1  TIME STEP           9
 TOTAL SIMULATION TIME   90.0000000000000     
 
 FLOW TO THE NODE IN M^3/D
 
 NODE   FIXED HEAD     RECHARGE        QWELL  MATRIX EXCH      STORAGE      TUBE_IN     TUBE_OUT         CADS     FHLQ(LQ)       CAUCHY   CAUCHY(LQ)          QLH     IN - OUT
   1     0.0000       0.0000       0.0000      0.21103E-01   0.0000       0.0000     -0.21103E-01   0.0000       0.0000       0.0000       0.0000       0.0000     -0.64344E-09
   2    0.15311E-01   0.0000       0.0000       0.0000       0.0000       0.0000     -0.15311E-01   0.0000       0.0000       0.0000       0.0000       0.0000       0.0000    
   3     0.0000       0.0000       0.0000      0.60306E-01   0.0000      0.36414E-01 -0.96720E-01   0.0000       0.0000       0.0000       0.0000       0.0000      0.15488E-08
   4     0.0000      0.30000     -0.50000      0.62685E-01   0.0000      0.13731       0.0000       0.0000       0.0000       0.0000       0.0000       0.0000     -0.53933E-09
   5     0.0000       0.0000       0.0000      0.40595E-01   0.0000       0.0000     -0.40595E-01   0.0000       0.0000       0.0000       0.0000       0.0000      0.28611E-10
 
 SOLVING FOR HEAD 
MODFLOW ITER.#  NEWTON-RAPHSON ITER.#   MAXIMUM NODE HEAD CHANGE
         1                   1                  0.0000000000
         1                   2                  0.0000000000
         1                   3                  0.0000000000
     1 CALLS TO PCG ROUTINE FOR TIME STEP  10 IN STRESS PERIOD    1
     1 TOTAL ITERATIONS

 MAXIMUM HEAD CHANGE FOR EACH ITERATION (1 INDICATES THE FIRST INNER ITERATION):

    HEAD CHANGE    HEAD CHANGE    HEAD CHANGE    HEAD CHANGE    HEAD CHANGE 
   LAYER,ROW,COL  LAYER,ROW,COL  LAYER,ROW,COL  LAYER,ROW,COL  LAYER,ROW,COL
 ---------------------------------------------------------------------------
  1  0.3882E-10
   (  3,  1,  4)

 MAXIMUM RESIDUAL FOR EACH ITERATION (1 INDICATES THE FIRST INNER ITERATION):

    RESIDUAL       RESIDUAL       RESIDUAL       RESIDUAL       RESIDUAL    
   LAYER,ROW,COL  LAYER,ROW,COL  LAYER,ROW,COL  LAYER,ROW,COL  LAYER,ROW,COL
 ---------------------------------------------------------------------------
  1 -0.3042E-07
   (  3,  2,  3)


MODFLOW ITER.#  NEWTON-RAPHSON ITER.#   MAXIMUM NODE HEAD CHANGE
         1                   1                  0.0000000000
         1                   2                  0.0000000000
         1                   3                  0.0000000000

 NO OUTPUT CONTROL FOR STRESS PERIOD    1   TIME STEP  10
 
 
 CFPM1 CRITERION OF CONVERGENCE:     0.1000000E-05
 CFPM1 MAXIMUM NUMBER OF ITERATIONS:   100
 
 
 CFPM1 RESULTS +++++++++++++++++++++++++++++++++++++++++++++++++++++++
 
 STRESS PERIOD/TIME STEP           1          10
 
NUMBER OF NEWTON RHAPSON ITERATIONS:     3
 
 ------- RESULTS OF FLOW CALCULATION -------
 
NODE# NODE HEAD[M] MATRIX HEAD [M] EXCHANGE [M^3/D]    CADSFLOW            PFPSFLOW         DIRECT RECHARGE        QWELL         FHLQ            CAUCHY         CAUCHY LQ               QLH              QFIX
    1  20.00000      20.00027       -0.2110271E-01       0.000000           0.000000           0.000000        0.000000         0.000000         0.000000         0.000000         0.000000         0.000000    
    2  20.00    FIX  20.00000           0.0000           0.000000           0.000000           0.000000        0.000000         0.000000         0.000000         0.000000         0.000000        0.1531140E-01
    3  20.00000      20.00026       -0.6030552E-01       0.000000           0.000000           0.000000        0.000000         0.000000         0.000000         0.000000         0.000000         0.000000    
    4  20.00000      20.00040       -0.6268514E-01       0.000000           0.000000          0.3000000       -.5000000         0.000000         0.000000         0.000000         0.000000         0.000000    
    5  20.00000      20.00052       -0.4059523E-01       0.000000           0.000000           0.000000        0.000000         0.000000         0.000000         0.000000         0.000000         0.000000    
 
TUBE  B  E  FLOW          Q [M^3/D]       DIAM.[M]        LEN.[M]        RE         RESIDENCE TIME [D]
   1   1   3   LAMI.         0.02110        0.10000       10.00000        3.48201        3.72179
   2   2   3   LAMI.         0.01531        0.10000       10.00000        2.52643        5.12950
   3   3   4   TURB.         0.09672        0.10000       10.00000       15.95904        0.81204
   4   4   5   LAMI.        -0.04060        0.10000       10.00000        6.69834        1.93471
 

    BUDGET OF THE PIPE SYSTEM OF TIMESTEP   10 IN STRESS PERIOD    1
------------------------------------------------------------------------

  TOTAL SIMULATION TIME   100.000000000000      S
 
       CUMULATIVE VALUES (L**3)           RATES THIS TIME STEP (L**3/T)

            IN:                               IN:
     CONSTANT HEAD =   1.5311557          CONSTANT HEAD =  0.15311403E-01
      FHLQ BC (LQ) =   0.0000000           FHLQ BC (LQ) =   0.0000000    
   MATRIX EXCHANGE =   18.468844        MATRIX EXCHANGE =  0.18468860    
     PIPE RECHARGE =   30.000000          PIPE RECHARGE =  0.30000000    
           WELL BC =   0.0000000                WELL BC =   0.0000000    
       PFP STORAGE =   0.0000000            PFP STORAGE =   0.0000000    

     CUMULATIVE IN =   50.000000               TOTAL IN =  0.50000000    

           OUT:                               OUT:
     CONSTANT HEAD =   0.0000000          CONSTANT HEAD =   0.0000000    
      FHLQ BC (LQ) =   0.0000000           FHLQ BC (LQ) =   0.0000000    
   MATRIX EXCHANGE =   0.0000000        MATRIX EXCHANGE =   0.0000000    
     PIPE RECHARGE =   0.0000000          PIPE RECHARGE =   0.0000000    
           WELL BC =   50.000000                WELL BC =  0.50000000    
       PFP STORAGE =   0.0000000            PFP STORAGE =   0.0000000    

    CUMULATIVE OUT =   50.000000              TOTAL OUT =  0.50000000    

          IN - OUT = -0.11741189E-07           IN - OUT = -0.24994259E-09
     PERCENT ERROR =  0.00                PERCENT ERROR =  0.00


 
 ------------------------NODE WATER BUDGET-----------------------
  STRESS PERIOD           1  TIME STEP          10
 TOTAL SIMULATION TIME   100.000000000000     
 
 FLOW TO THE NODE IN M^3/D
 
 NODE   FIXED HEAD     RECHARGE        QWELL  MATRIX EXCH      STORAGE      TUBE_IN     TUBE_OUT         CADS     FHLQ(LQ)       CAUCHY   CAUCHY(LQ)          QLH     IN - OUT
   1     0.0000       0.0000       0.0000      0.21103E-01   0.0000       0.0000     -0.21103E-01   0.0000       0.0000       0.0000       0.0000       0.0000     -0.10910E-09
   2    0.15311E-01   0.0000       0.0000       0.0000       0.0000       0.0000     -0.15311E-01   0.0000       0.0000       0.0000       0.0000       0.0000       0.0000    
   3     0.0000       0.0000       0.0000      0.60306E-01   0.0000      0.36414E-01 -0.96720E-01   0.0000       0.0000       0.0000       0.0000       0.0000     -0.15111E-08
   4     0.0000      0.30000     -0.50000      0.62685E-01   0.0000      0.13731       0.0000       0.0000       0.0000       0.0000       0.0000       0.0000      0.11183E-08
   5     0.0000       0.0000       0.0000      0.40595E-01   0.0000       0.0000     -0.40595E-01   0.0000       0.0000       0.0000       0.0000       0.0000      0.25192E-09
1
  VOLUMETRIC BUDGET FOR ENTIRE MODEL AT END OF TIME STEP 10 IN STRESS PERIOD   1
  ------------------------------------------------------------------------------

     CUMULATIVE VOLUMES      L**3       RATES FOR THIS TIME STEP      L**3/T
     ------------------                 ------------------------

           IN:                                      IN:
           ---                                      ---
             STORAGE =       4.1584E-12               STORAGE =           0.0000
       CONSTANT HEAD =           0.0000         CONSTANT HEAD =           0.0000
            RECHARGE =         330.0000              RECHARGE =           3.3000
               PIPES =           0.0000                 PIPES =           0.0000

            TOTAL IN =         330.0000              TOTAL IN =           3.3000

          OUT:                                     OUT:
          ----                                     ----
             STORAGE =       2.8998E-05               STORAGE =       9.1737E-14
       CONSTANT HEAD =         311.5308         CONSTANT HEAD =           3.1153
            RECHARGE =           0.0000              RECHARGE =           0.0000
               PIPES =          18.4688                 PIPES =           0.1847

           TOTAL OUT =         329.9997             TOTAL OUT =           3.3000

            IN - OUT =       3.2054E-04              IN - OUT =       1.8671E-07

 PERCENT DISCREPANCY =           0.00     PERCENT DISCREPANCY =           0.00






          TIME SUMMARY AT END OF TIME STEP  10 IN STRESS PERIOD    1
                    SECONDS     MINUTES      HOURS       DAYS        YEARS
                    -----------------------------------------------------------
   TIME STEP LENGTH 8.64000E+05  14400.      240.00      10.000     2.73785E-02
 STRESS PERIOD TIME 8.64000E+06 1.44000E+05  2400.0      100.00     0.27379    
         TOTAL TIME 8.64000E+06 1.44000E+05  2400.0      100.00     0.27379    
1
1
                            STRESS PERIOD NO.    2, LENGTH =   100.0000    
                            -----------------------------------------------

                              NUMBER OF TIME STEPS =    10

                               MULTIPLIER FOR DELT =     1.000

                            INITIAL TIME STEP SIZE =   10.00000    



                           RECHARGE
 READING ON UNIT   19 WITH FORMAT: (4E15.6)            
 
 CFP1RCH1RP SUBROUTINE READING FROM UNIT           53
 READING INPUT USED TO PARTICIAN RECHARGE AND WELL DATA
 0.0    0.0    0.0    1.0    0.0   
 DATA FOR WELLS:
 0.0    0.0    0.0   -.50    0.0   
 
 SOLVING FOR HEAD 
MODFLOW ITER.#  NEWTON-RAPHSON ITER.#   MAXIMUM NODE HEAD CHANGE
         1                   1                  0.0000010197
TUBE   2 SWITCH LAM -> TURB: LAM_RE (   35.44    ) >= TCRITREY:   20.00     TURB_RE:   104.7    
         1                   2                  0.0000000602
    SWITCH NODE  2 WITH Q   0.634317     TO LQ-FLOW WITH   0.500000E-01
    CHANGED    1 CONDUIT NODES DUE TO FHLQ IN STRESS PERIOD      2
         1                   3                  0.0002634589
    CHANGED    1 CONDUIT NODES DUE TO FHLQ IN STRESS PERIOD      2
         1                   4                  0.0000005920
MODFLOW ITER.#  NEWTON-RAPHSON ITER.#   MAXIMUM NODE HEAD CHANGE
         2                   1                  0.0002117721
TUBE   2 SWITCH TURB -> LAM: TURBREY (   3.524    ) <= LCRITREY:   10.00     LAM_RE:  0.4787    
         2                   2                  0.0000000488
         2                   3                  0.0000002903
MODFLOW ITER.#  NEWTON-RAPHSON ITER.#   MAXIMUM NODE HEAD CHANGE
         3                   1                  0.0000125322
         3                   2                  0.0000000000
         3                   3                  0.0000000000
MODFLOW ITER.#  NEWTON-RAPHSON ITER.#   MAXIMUM NODE HEAD CHANGE
         4                   1                  0.0000007424
         4                   2                  0.0000000000
         4                   3                  0.0000000000
MODFLOW ITER.#  NEWTON-RAPHSON ITER.#   MAXIMUM NODE HEAD CHANGE
         5                   1                  0.0000000440
         5                   2                  0.0000000000
         5                   3                  0.0000000000


     5 CALLS TO PCG ROUTINE FOR TIME STEP   1 IN STRESS PERIOD    2
    29 TOTAL ITERATIONS
MODFLOW ITER.#  NEWTON-RAPHSON ITER.#   MAXIMUM NODE HEAD CHANGE
         5                   1                  0.0000000019
         5                   2                  0.0000000000
         5                   3                  0.0000000000

 NO OUTPUT CONTROL FOR STRESS PERIOD    2   TIME STEP   1
 
 
 CFPM1 CRITERION OF CONVERGENCE:     0.1000000E-05
 CFPM1 MAXIMUM NUMBER OF ITERATIONS:   100
 
 
 CFPM1 RESULTS +++++++++++++++++++++++++++++++++++++++++++++++++++++++
 
 STRESS PERIOD/TIME STEP           2           1
 
NUMBER OF NEWTON RHAPSON ITERATIONS:     3
 
 ------- RESULTS OF FLOW CALCULATION -------
 
NODE# NODE HEAD[M] MATRIX HEAD [M] EXCHANGE [M^3/D]    CADSFLOW            PFPSFLOW         DIRECT RECHARGE        QWELL         FHLQ            CAUCHY         CAUCHY LQ               QLH              QFIX
    1  19.99951      20.00007       -0.4363531E-01       0.000000           0.000000           0.000000        0.000000         0.000000         0.000000         0.000000         0.000000         0.000000    
    2  19.99951      20.00000       -0.3829703E-01       0.000000           0.000000           0.000000        0.000000        0.5000000E-01     0.000000         0.000000         0.000000         0.000000    
    3  19.99951      20.00005       -0.1277842           0.000000           0.000000           0.000000        0.000000         0.000000         0.000000         0.000000         0.000000         0.000000    
    4  19.99951      20.00009       -0.9147935E-01       0.000000           0.000000          0.1000000       -.5000000         0.000000         0.000000         0.000000         0.000000         0.000000    
    5  19.99951      20.00013       -0.4880411E-01       0.000000           0.000000           0.000000        0.000000         0.000000         0.000000         0.000000         0.000000         0.000000    
 
TUBE  B  E  FLOW          Q [M^3/D]       DIAM.[M]        LEN.[M]        RE         RESIDENCE TIME [D]
   1   1   3   LAMI.         0.04364        0.10000       10.00000        7.19996        1.79991
   2   2   3   LAMI.         0.08830        0.10000       10.00000       14.56928        0.88950
   3   3   4   TURB.         0.25972        0.10000       10.00000       42.85403        0.30241
   4   4   5   LAMI.        -0.04880        0.10000       10.00000        8.05283        1.60929
 

    BUDGET OF THE PIPE SYSTEM OF TIMESTEP    1 IN STRESS PERIOD    2
------------------------------------------------------------------------

  TOTAL SIMULATION TIME   110.000000000000      S
 
       CUMULATIVE VALUES (L**3)           RATES THIS TIME STEP (L**3/T)

            IN:                               IN:
     CONSTANT HEAD =   1.5311557          CONSTANT HEAD =   0.0000000    
      FHLQ BC (LQ) =  0.50000000           FHLQ BC (LQ) =  0.50000000E-01
   MATRIX EXCHANGE =   21.968844        MATRIX EXCHANGE =  0.35000000    
     PIPE RECHARGE =   31.000000          PIPE RECHARGE =  0.10000000    
           WELL BC =   0.0000000                WELL BC =   0.0000000    
       PFP STORAGE =   0.0000000            PFP STORAGE =   0.0000000    

     CUMULATIVE IN =   55.000000               TOTAL IN =  0.50000000    

           OUT:                               OUT:
     CONSTANT HEAD =   0.0000000          CONSTANT HEAD =   0.0000000    
      FHLQ BC (LQ) =   0.0000000           FHLQ BC (LQ) =   0.0000000    
   MATRIX EXCHANGE =   0.0000000        MATRIX EXCHANGE =   0.0000000    
     PIPE RECHARGE =   0.0000000          PIPE RECHARGE =   0.0000000    
           WELL BC =   55.000000                WELL BC =  0.50000000    
       PFP STORAGE =   0.0000000            PFP STORAGE =   0.0000000    

    CUMULATIVE OUT =   55.000000              TOTAL OUT =  0.50000000    

          IN - OUT = -0.11741676E-07           IN - OUT = -0.48183679E-13
     PERCENT ERROR =  0.00                PERCENT ERROR =  0.00


 
 ------------------------NODE WATER BUDGET-----------------------
  STRESS PERIOD           2  TIME STEP           1
 TOTAL SIMULATION TIME   110.000000000000     
 
 FLOW TO THE NODE IN M^3/D
 
 NODE   FIXED HEAD     RECHARGE        QWELL  MATRIX EXCH      STORAGE      TUBE_IN     TUBE_OUT         CADS     FHLQ(LQ)       CAUCHY   CAUCHY(LQ)          QLH     IN - OUT
   1     0.0000       0.0000       0.0000      0.43635E-01   0.0000       0.0000     -0.43635E-01   0.0000       0.0000       0.0000       0.0000       0.0000      0.23447E-09
   2     0.0000       0.0000       0.0000      0.38297E-01   0.0000       0.0000     -0.88297E-01   0.0000      0.50000E-01   0.0000       0.0000       0.0000     -0.14163E-09
   3     0.0000       0.0000       0.0000      0.12778       0.0000      0.13193     -0.25972       0.0000       0.0000       0.0000       0.0000       0.0000     -0.34400E-09
   4     0.0000      0.10000     -0.50000      0.91479E-01   0.0000      0.30852       0.0000       0.0000       0.0000       0.0000       0.0000       0.0000      0.29636E-09
   5     0.0000       0.0000       0.0000      0.48804E-01   0.0000       0.0000     -0.48804E-01   0.0000       0.0000       0.0000       0.0000       0.0000     -0.45260E-10
 
 SOLVING FOR HEAD 
MODFLOW ITER.#  NEWTON-RAPHSON ITER.#   MAXIMUM NODE HEAD CHANGE
         1                   1                  0.0000000000
         1                   2                  0.0000000000
         1                   3                  0.0000000000
     1 CALLS TO PCG ROUTINE FOR TIME STEP   2 IN STRESS PERIOD    2
     1 TOTAL ITERATIONS
MODFLOW ITER.#  NEWTON-RAPHSON ITER.#   MAXIMUM NODE HEAD CHANGE
         1                   1                  0.0000000002
         1                   2                  0.0000000000
         1                   3                  0.0000000000

 NO OUTPUT CONTROL FOR STRESS PERIOD    2   TIME STEP   2
 
 
 CFPM1 CRITERION OF CONVERGENCE:     0.1000000E-05
 CFPM1 MAXIMUM NUMBER OF ITERATIONS:   100
 
 
 CFPM1 RESULTS +++++++++++++++++++++++++++++++++++++++++++++++++++++++
 
 STRESS PERIOD/TIME STEP           2           2
 
NUMBER OF NEWTON RHAPSON ITERATIONS:     3
 
 ------- RESULTS OF FLOW CALCULATION -------
 
NODE# NODE HEAD[M] MATRIX HEAD [M] EXCHANGE [M^3/D]    CADSFLOW            PFPSFLOW         DIRECT RECHARGE        QWELL         FHLQ            CAUCHY         CAUCHY LQ               QLH              QFIX
    1  19.99951      20.00007       -0.4363529E-01       0.000000           0.000000           0.000000        0.000000         0.000000         0.000000         0.000000         0.000000         0.000000    
    2  19.99951      20.00000       -0.3829704E-01       0.000000           0.000000           0.000000        0.000000        0.5000000E-01     0.000000         0.000000         0.000000         0.000000    
    3  19.99951      20.00005       -0.1277842           0.000000           0.000000           0.000000        0.000000         0.000000         0.000000         0.000000         0.000000         0.000000    
    4  19.99951      20.00009       -0.9147940E-01       0.000000           0.000000          0.1000000       -.5000000         0.000000         0.000000         0.000000         0.000000         0.000000    
    5  19.99951      20.00013       -0.4880410E-01       0.000000           0.000000           0.000000        0.000000         0.000000         0.000000         0.000000         0.000000         0.000000    
 
TUBE  B  E  FLOW          Q [M^3/D]       DIAM.[M]        LEN.[M]        RE         RESIDENCE TIME [D]
   1   1   3   LAMI.         0.04364        0.10000       10.00000        7.19996        1.79992
   2   2   3   LAMI.         0.08830        0.10000       10.00000       14.56928        0.88950
   3   3   4   TURB.         0.25972        0.10000       10.00000       42.85402        0.30241
   4   4   5   LAMI.        -0.04880        0.10000       10.00000        8.05283        1.60929
 

    BUDGET OF THE PIPE SYSTEM OF TIMESTEP    2 IN STRESS PERIOD    2
------------------------------------------------------------------------

  TOTAL SIMULATION TIME   120.000000000000      S
 
       CUMULATIVE VALUES (L**3)           RATES THIS TIME STEP (L**3/T)

            IN:                               IN:
     CONSTANT HEAD =   1.5311557          CONSTANT HEAD =   0.0000000    
      FHLQ BC (LQ) =   1.0000000           FHLQ BC (LQ) =  0.50000000E-01
   MATRIX EXCHANGE =   25.468844        MATRIX EXCHANGE =  0.35000000    
     PIPE RECHARGE =   32.000000          PIPE RECHARGE =  0.10000000    
           WELL BC =   0.0000000                WELL BC =   0.0000000    
       PFP STORAGE =   0.0000000            PFP STORAGE =   0.0000000    

     CUMULATIVE IN =   60.000000               TOTAL IN =  0.50000000    

           OUT:                               OUT:
     CONSTANT HEAD =   0.0000000          CONSTANT HEAD =   0.0000000    
      FHLQ BC (LQ) =   0.0000000           FHLQ BC (LQ) =   0.0000000    
   MATRIX EXCHANGE =   0.0000000        MATRIX EXCHANGE =   0.0000000    
     PIPE RECHARGE =   0.0000000          PIPE RECHARGE =   0.0000000    
           WELL BC =   60.000000                WELL BC =  0.50000000    
       PFP STORAGE =   0.0000000            PFP STORAGE =   0.0000000    

    CUMULATIVE OUT =   60.000000              TOTAL OUT =  0.50000000    

          IN - OUT = -0.11739363E-07           IN - OUT =  0.23087088E-12
     PERCENT ERROR =  0.00                PERCENT ERROR =  0.00


 
 ------------------------NODE WATER BUDGET-----------------------
  STRESS PERIOD           2  TIME STEP           2
 TOTAL SIMULATION TIME   120.000000000000     
 
 FLOW TO THE NODE IN M^3/D
 
 NODE   FIXED HEAD     RECHARGE        QWELL  MATRIX EXCH      STORAGE      TUBE_IN     TUBE_OUT         CADS     FHLQ(LQ)       CAUCHY   CAUCHY(LQ)          QLH     IN - OUT
   1     0.0000       0.0000       0.0000      0.43635E-01   0.0000       0.0000     -0.43635E-01   0.0000       0.0000       0.0000       0.0000       0.0000      0.22741E-09
   2     0.0000       0.0000       0.0000      0.38297E-01   0.0000       0.0000     -0.88297E-01   0.0000      0.50000E-01   0.0000       0.0000       0.0000      0.16067E-09
   3     0.0000       0.0000       0.0000      0.12778       0.0000      0.13193     -0.25972       0.0000       0.0000       0.0000       0.0000       0.0000     -0.25734E-09
   4     0.0000      0.10000     -0.50000      0.91479E-01   0.0000      0.30852       0.0000       0.0000       0.0000       0.0000       0.0000       0.0000     -0.18827E-09
   5     0.0000       0.0000       0.0000      0.48804E-01   0.0000       0.0000     -0.48804E-01   0.0000       0.0000       0.0000       0.0000       0.0000      0.57750E-10
 
 SOLVING FOR HEAD 
MODFLOW ITER.#  NEWTON-RAPHSON ITER.#   MAXIMUM NODE HEAD CHANGE
         1                   1                  0.0000000000
         1                   2                  0.0000000000
         1                   3                  0.0000000000
     1 CALLS TO PCG ROUTINE FOR TIME STEP   3 IN STRESS PERIOD    2
     1 TOTAL ITERATIONS
MODFLOW ITER.#  NEWTON-RAPHSON ITER.#   MAXIMUM NODE HEAD CHANGE
         1                   1                  0.0000000003
         1                   2                  0.0000000000
         1                   3                  0.0000000000

 NO OUTPUT CONTROL FOR STRESS PERIOD    2   TIME STEP   3
 
 
 CFPM1 CRITERION OF CONVERGENCE:     0.1000000E-05
 CFPM1 MAXIMUM NUMBER OF ITERATIONS:   100
 
 
 CFPM1 RESULTS +++++++++++++++++++++++++++++++++++++++++++++++++++++++
 
 STRESS PERIOD/TIME STEP           2           3
 
NUMBER OF NEWTON RHAPSON ITERATIONS:     3
 
 ------- RESULTS OF FLOW CALCULATION -------
 
NODE# NODE HEAD[M] MATRIX HEAD [M] EXCHANGE [M^3/D]    CADSFLOW            PFPSFLOW         DIRECT RECHARGE        QWELL         FHLQ            CAUCHY         CAUCHY LQ               QLH              QFIX
    1  19.99951      20.00007       -0.4363529E-01       0.000000           0.000000           0.000000        0.000000         0.000000         0.000000         0.000000         0.000000         0.000000    
    2  19.99951      20.00000       -0.3829707E-01       0.000000           0.000000           0.000000        0.000000        0.5000000E-01     0.000000         0.000000         0.000000         0.000000    
    3  19.99951      20.00005       -0.1277842           0.000000           0.000000           0.000000        0.000000         0.000000         0.000000         0.000000         0.000000         0.000000    
    4  19.99951      20.00009       -0.9147937E-01       0.000000           0.000000          0.1000000       -.5000000         0.000000         0.000000         0.000000         0.000000         0.000000    
    5  19.99951      20.00013       -0.4880410E-01       0.000000           0.000000           0.000000        0.000000         0.000000         0.000000         0.000000         0.000000         0.000000    
 
TUBE  B  E  FLOW          Q [M^3/D]       DIAM.[M]        LEN.[M]        RE         RESIDENCE TIME [D]
   1   1   3   LAMI.         0.04364        0.10000       10.00000        7.19996        1.79991
   2   2   3   LAMI.         0.08830        0.10000       10.00000       14.56929        0.88950
   3   3   4   TURB.         0.25972        0.10000       10.00000       42.85403        0.30241
   4   4   5   LAMI.        -0.04880        0.10000       10.00000        8.05283        1.60929
 

    BUDGET OF THE PIPE SYSTEM OF TIMESTEP    3 IN STRESS PERIOD    2
------------------------------------------------------------------------

  TOTAL SIMULATION TIME   130.000000000000      S
 
       CUMULATIVE VALUES (L**3)           RATES THIS TIME STEP (L**3/T)

            IN:                               IN:
     CONSTANT HEAD =   1.5311557          CONSTANT HEAD =   0.0000000    
      FHLQ BC (LQ) =   1.5000000           FHLQ BC (LQ) =  0.50000000E-01
   MATRIX EXCHANGE =   28.968844        MATRIX EXCHANGE =  0.35000000    
     PIPE RECHARGE =   33.000000          PIPE RECHARGE =  0.10000000    
           WELL BC =   0.0000000                WELL BC =   0.0000000    
       PFP STORAGE =   0.0000000            PFP STORAGE =   0.0000000    

     CUMULATIVE IN =   65.000000               TOTAL IN =  0.50000000    

           OUT:                               OUT:
     CONSTANT HEAD =   0.0000000          CONSTANT HEAD =   0.0000000    
      FHLQ BC (LQ) =   0.0000000           FHLQ BC (LQ) =   0.0000000    
   MATRIX EXCHANGE =   0.0000000        MATRIX EXCHANGE =   0.0000000    
     PIPE RECHARGE =   0.0000000          PIPE RECHARGE =   0.0000000    
           WELL BC =   65.000000                WELL BC =  0.50000000    
       PFP STORAGE =   0.0000000            PFP STORAGE =   0.0000000    

    CUMULATIVE OUT =   65.000000              TOTAL OUT =  0.50000000    

          IN - OUT = -0.11739846E-07           IN - OUT = -0.48183679E-13
     PERCENT ERROR =  0.00                PERCENT ERROR =  0.00


 
 ------------------------NODE WATER BUDGET-----------------------
  STRESS PERIOD           2  TIME STEP           3
 TOTAL SIMULATION TIME   130.000000000000     
 
 FLOW TO THE NODE IN M^3/D
 
 NODE   FIXED HEAD     RECHARGE        QWELL  MATRIX EXCH      STORAGE      TUBE_IN     TUBE_OUT         CADS     FHLQ(LQ)       CAUCHY   CAUCHY(LQ)          QLH     IN - OUT
   1     0.0000       0.0000       0.0000      0.43635E-01   0.0000       0.0000     -0.43635E-01   0.0000       0.0000       0.0000       0.0000       0.0000      0.11837E-09
   2     0.0000       0.0000       0.0000      0.38297E-01   0.0000       0.0000     -0.88297E-01   0.0000      0.50000E-01   0.0000       0.0000       0.0000     -0.29804E-09
   3     0.0000       0.0000       0.0000      0.12778       0.0000      0.13193     -0.25972       0.0000       0.0000       0.0000       0.0000       0.0000     -0.42315E-09
   4     0.0000      0.10000     -0.50000      0.91479E-01   0.0000      0.30852       0.0000       0.0000       0.0000       0.0000       0.0000       0.0000      0.51450E-09
   5     0.0000       0.0000       0.0000      0.48804E-01   0.0000       0.0000     -0.48804E-01   0.0000       0.0000       0.0000       0.0000       0.0000      0.88273E-10
 
 SOLVING FOR HEAD 
MODFLOW ITER.#  NEWTON-RAPHSON ITER.#   MAXIMUM NODE HEAD CHANGE
         1                   1                  0.0000000000
         1                   2                  0.0000000000
         1                   3                  0.0000000000
     1 CALLS TO PCG ROUTINE FOR TIME STEP   4 IN STRESS PERIOD    2
     1 TOTAL ITERATIONS
MODFLOW ITER.#  NEWTON-RAPHSON ITER.#   MAXIMUM NODE HEAD CHANGE
         1                   1                  0.0000000002
         1                   2                  0.0000000000
         1                   3                  0.0000000000

 NO OUTPUT CONTROL FOR STRESS PERIOD    2   TIME STEP   4
 
 
 CFPM1 CRITERION OF CONVERGENCE:     0.1000000E-05
 CFPM1 MAXIMUM NUMBER OF ITERATIONS:   100
 
 
 CFPM1 RESULTS +++++++++++++++++++++++++++++++++++++++++++++++++++++++
 
 STRESS PERIOD/TIME STEP           2           4
 
NUMBER OF NEWTON RHAPSON ITERATIONS:     3
 
 ------- RESULTS OF FLOW CALCULATION -------
 
NODE# NODE HEAD[M] MATRIX HEAD [M] EXCHANGE [M^3/D]    CADSFLOW            PFPSFLOW         DIRECT RECHARGE        QWELL         FHLQ            CAUCHY         CAUCHY LQ               QLH              QFIX
    1  19.99951      20.00007       -0.4363529E-01       0.000000           0.000000           0.000000        0.000000         0.000000         0.000000         0.000000         0.000000         0.000000    
    2  19.99951      20.00000       -0.3829708E-01       0.000000           0.000000           0.000000        0.000000        0.5000000E-01     0.000000         0.000000         0.000000         0.000000    
    3  19.99951      20.00005       -0.1277842           0.000000           0.000000           0.000000        0.000000         0.000000         0.000000         0.000000         0.000000         0.000000    
    4  19.99951      20.00009       -0.9147937E-01       0.000000           0.000000          0.1000000       -.5000000         0.000000         0.000000         0.000000         0.000000         0.000000    
    5  19.99951      20.00013       -0.4880409E-01       0.000000           0.000000           0.000000        0.000000         0.000000         0.000000         0.000000         0.000000         0.000000    
 
TUBE  B  E  FLOW          Q [M^3/D]       DIAM.[M]        LEN.[M]        RE         RESIDENCE TIME [D]
   1   1   3   LAMI.         0.04364        0.10000       10.00000        7.19996        1.79991
   2   2   3   LAMI.         0.08830        0.10000       10.00000       14.56929        0.88950
   3   3   4   TURB.         0.25972        0.10000       10.00000       42.85403        0.30241
   4   4   5   LAMI.        -0.04880        0.10000       10.00000        8.05282        1.60929
 

    BUDGET OF THE PIPE SYSTEM OF TIMESTEP    4 IN STRESS PERIOD    2
------------------------------------------------------------------------

  TOTAL SIMULATION TIME   140.000000000000      S
 
       CUMULATIVE VALUES (L**3)           RATES THIS TIME STEP (L**3/T)

            IN:                               IN:
     CONSTANT HEAD =   1.5311557          CONSTANT HEAD =   0.0000000    
      FHLQ BC (LQ) =   2.0000000           FHLQ BC (LQ) =  0.50000000E-01
   MATRIX EXCHANGE =   32.468844        MATRIX EXCHANGE =  0.35000000    
     PIPE RECHARGE =   34.000000          PIPE RECHARGE =  0.10000000    
           WELL BC =   0.0000000                WELL BC =   0.0000000    
       PFP STORAGE =   0.0000000            PFP STORAGE =   0.0000000    

     CUMULATIVE IN =   70.000000               TOTAL IN =  0.50000000    

           OUT:                               OUT:
     CONSTANT HEAD =   0.0000000          CONSTANT HEAD =   0.0000000    
      FHLQ BC (LQ) =   0.0000000           FHLQ BC (LQ) =   0.0000000    
   MATRIX EXCHANGE =   0.0000000        MATRIX EXCHANGE =   0.0000000    
     PIPE RECHARGE =   0.0000000          PIPE RECHARGE =   0.0000000    
           WELL BC =   70.000000                WELL BC =  0.50000000    
       PFP STORAGE =   0.0000000            PFP STORAGE =   0.0000000    

    CUMULATIVE OUT =   70.000000              TOTAL OUT =  0.50000000    

          IN - OUT = -0.11743118E-07           IN - OUT = -0.32723824E-12
     PERCENT ERROR =  0.00                PERCENT ERROR =  0.00


 
 ------------------------NODE WATER BUDGET-----------------------
  STRESS PERIOD           2  TIME STEP           4
 TOTAL SIMULATION TIME   140.000000000000     
 
 FLOW TO THE NODE IN M^3/D
 
 NODE   FIXED HEAD     RECHARGE        QWELL  MATRIX EXCH      STORAGE      TUBE_IN     TUBE_OUT         CADS     FHLQ(LQ)       CAUCHY   CAUCHY(LQ)          QLH     IN - OUT
   1     0.0000       0.0000       0.0000      0.43635E-01   0.0000       0.0000     -0.43635E-01   0.0000       0.0000       0.0000       0.0000       0.0000     -0.17712E-09
   2     0.0000       0.0000       0.0000      0.38297E-01   0.0000       0.0000     -0.88297E-01   0.0000      0.50000E-01   0.0000       0.0000       0.0000     -0.22896E-09
   3     0.0000       0.0000       0.0000      0.12778       0.0000      0.13193     -0.25972       0.0000       0.0000       0.0000       0.0000       0.0000      0.15130E-08
   4     0.0000      0.10000     -0.50000      0.91479E-01   0.0000      0.30852       0.0000       0.0000       0.0000       0.0000       0.0000       0.0000     -0.15023E-08
   5     0.0000       0.0000       0.0000      0.48804E-01   0.0000       0.0000     -0.48804E-01   0.0000       0.0000       0.0000       0.0000       0.0000      0.39502E-09
 
 SOLVING FOR HEAD 
MODFLOW ITER.#  NEWTON-RAPHSON ITER.#   MAXIMUM NODE HEAD CHANGE
         1                   1                  0.0000000000
         1                   2                  0.0000000000
         1                   3                  0.0000000000
     1 CALLS TO PCG ROUTINE FOR TIME STEP   5 IN STRESS PERIOD    2
     1 TOTAL ITERATIONS

 MAXIMUM HEAD CHANGE FOR EACH ITERATION (1 INDICATES THE FIRST INNER ITERATION):

    HEAD CHANGE    HEAD CHANGE    HEAD CHANGE    HEAD CHANGE    HEAD CHANGE 
   LAYER,ROW,COL  LAYER,ROW,COL  LAYER,ROW,COL  LAYER,ROW,COL  LAYER,ROW,COL
 ---------------------------------------------------------------------------
  1  0.2424E-09
   (  2,  1,  4)

 MAXIMUM RESIDUAL FOR EACH ITERATION (1 INDICATES THE FIRST INNER ITERATION):

    RESIDUAL       RESIDUAL       RESIDUAL       RESIDUAL       RESIDUAL    
   LAYER,ROW,COL  LAYER,ROW,COL  LAYER,ROW,COL  LAYER,ROW,COL  LAYER,ROW,COL
 ---------------------------------------------------------------------------
  1  0.2363E-06
   (  3,  2,  2)


MODFLOW ITER.#  NEWTON-RAPHSON ITER.#   MAXIMUM NODE HEAD CHANGE
         1                   1                  0.0000000001
         1                   2                  0.0000000000
         1                   3                  0.0000000000

 NO OUTPUT CONTROL FOR STRESS PERIOD    2   TIME STEP   5
 
 
 CFPM1 CRITERION OF CONVERGENCE:     0.1000000E-05
 CFPM1 MAXIMUM NUMBER OF ITERATIONS:   100
 
 
 CFPM1 RESULTS +++++++++++++++++++++++++++++++++++++++++++++++++++++++
 
 STRESS PERIOD/TIME STEP           2           5
 
NUMBER OF NEWTON RHAPSON ITERATIONS:     3
 
 ------- RESULTS OF FLOW CALCULATION -------
 
NODE# NODE HEAD[M] MATRIX HEAD [M] EXCHANGE [M^3/D]    CADSFLOW            PFPSFLOW         DIRECT RECHARGE        QWELL         FHLQ            CAUCHY         CAUCHY LQ               QLH              QFIX
    1  19.99951      20.00007       -0.4363529E-01       0.000000           0.000000           0.000000        0.000000         0.000000         0.000000         0.000000         0.000000         0.000000    
    2  19.99951      20.00000       -0.3829709E-01       0.000000           0.000000           0.000000        0.000000        0.5000000E-01     0.000000         0.000000         0.000000         0.000000    
    3  19.99951      20.00005       -0.1277842           0.000000           0.000000           0.000000        0.000000         0.000000         0.000000         0.000000         0.000000         0.000000    
    4  19.99951      20.00009       -0.9147936E-01       0.000000           0.000000          0.1000000       -.5000000         0.000000         0.000000         0.000000         0.000000         0.000000    
    5  19.99951      20.00013       -0.4880409E-01       0.000000           0.000000           0.000000        0.000000         0.000000         0.000000         0.000000         0.000000         0.000000    
 
TUBE  B  E  FLOW          Q [M^3/D]       DIAM.[M]        LEN.[M]        RE         RESIDENCE TIME [D]
   1   1   3   LAMI.         0.04364        0.10000       10.00000        7.19996        1.79991
   2   2   3   LAMI.         0.08830        0.10000       10.00000       14.56929        0.88949
   3   3   4   TURB.         0.25972        0.10000       10.00000       42.85403        0.30241
   4   4   5   LAMI.        -0.04880        0.10000       10.00000        8.05283        1.60929
 

    BUDGET OF THE PIPE SYSTEM OF TIMESTEP    5 IN STRESS PERIOD    2
------------------------------------------------------------------------

  TOTAL SIMULATION TIME   150.000000000000      S
 
       CUMULATIVE VALUES (L**3)           RATES THIS TIME STEP (L**3/T)

            IN:                               IN:
     CONSTANT HEAD =   1.5311557          CONSTANT HEAD =   0.0000000    
      FHLQ BC (LQ) =   2.5000000           FHLQ BC (LQ) =  0.50000000E-01
   MATRIX EXCHANGE =   35.968844        MATRIX EXCHANGE =  0.35000000    
     PIPE RECHARGE =   35.000000          PIPE RECHARGE =  0.10000000    
           WELL BC =   0.0000000                WELL BC =   0.0000000    
       PFP STORAGE =   0.0000000            PFP STORAGE =   0.0000000    

     CUMULATIVE IN =   75.000000               TOTAL IN =  0.50000000    

           OUT:                               OUT:
     CONSTANT HEAD =   0.0000000          CONSTANT HEAD =   0.0000000    
      FHLQ BC (LQ) =   0.0000000           FHLQ BC (LQ) =   0.0000000    
   MATRIX EXCHANGE =   0.0000000        MATRIX EXCHANGE =   0.0000000    
     PIPE RECHARGE =   0.0000000          PIPE RECHARGE =   0.0000000    
           WELL BC =   75.000000                WELL BC =  0.50000000    
       PFP STORAGE =   0.0000000            PFP STORAGE =   0.0000000    

    CUMULATIVE OUT =   75.000000              TOTAL OUT =  0.50000000    

          IN - OUT = -0.11743602E-07           IN - OUT = -0.48183679E-13
     PERCENT ERROR =  0.00                PERCENT ERROR =  0.00


 
 ------------------------NODE WATER BUDGET-----------------------
  STRESS PERIOD           2  TIME STEP           5
 TOTAL SIMULATION TIME   150.000000000000     
 
 FLOW TO THE NODE IN M^3/D
 
 NODE   FIXED HEAD     RECHARGE        QWELL  MATRIX EXCH      STORAGE      TUBE_IN     TUBE_OUT         CADS     FHLQ(LQ)       CAUCHY   CAUCHY(LQ)          QLH     IN - OUT
   1     0.0000       0.0000       0.0000      0.43635E-01   0.0000       0.0000     -0.43635E-01   0.0000       0.0000       0.0000       0.0000       0.0000     -0.79459E-10
   2     0.0000       0.0000       0.0000      0.38297E-01   0.0000       0.0000     -0.88297E-01   0.0000      0.50000E-01   0.0000       0.0000       0.0000      0.45141E-09
   3     0.0000       0.0000       0.0000      0.12778       0.0000      0.13193     -0.25972       0.0000       0.0000       0.0000       0.0000       0.0000     -0.14587E-08
   4     0.0000      0.10000     -0.50000      0.91479E-01   0.0000      0.30852       0.0000       0.0000       0.0000       0.0000       0.0000       0.0000      0.83135E-09
   5     0.0000       0.0000       0.0000      0.48804E-01   0.0000       0.0000     -0.48804E-01   0.0000       0.0000       0.0000       0.0000       0.0000      0.25531E-09
 
 SOLVING FOR HEAD 
MODFLOW ITER.#  NEWTON-RAPHSON ITER.#   MAXIMUM NODE HEAD CHANGE
         1                   1                  0.0000000000
         1                   2                  0.0000000000
         1                   3                  0.0000000000
     1 CALLS TO PCG ROUTINE FOR TIME STEP   6 IN STRESS PERIOD    2
     1 TOTAL ITERATIONS
MODFLOW ITER.#  NEWTON-RAPHSON ITER.#   MAXIMUM NODE HEAD CHANGE
         1                   1                  0.0000000001
         1                   2                  0.0000000000
         1                   3                  0.0000000000

 NO OUTPUT CONTROL FOR STRESS PERIOD    2   TIME STEP   6
 
 
 CFPM1 CRITERION OF CONVERGENCE:     0.1000000E-05
 CFPM1 MAXIMUM NUMBER OF ITERATIONS:   100
 
 
 CFPM1 RESULTS +++++++++++++++++++++++++++++++++++++++++++++++++++++++
 
 STRESS PERIOD/TIME STEP           2           6
 
NUMBER OF NEWTON RHAPSON ITERATIONS:     3
 
 ------- RESULTS OF FLOW CALCULATION -------
 
NODE# NODE HEAD[M] MATRIX HEAD [M] EXCHANGE [M^3/D]    CADSFLOW            PFPSFLOW         DIRECT RECHARGE        QWELL         FHLQ            CAUCHY         CAUCHY LQ               QLH              QFIX
    1  19.99951      20.00007       -0.4363529E-01       0.000000           0.000000           0.000000        0.000000         0.000000         0.000000         0.000000         0.000000         0.000000    
    2  19.99951      20.00000       -0.3829710E-01       0.000000           0.000000           0.000000        0.000000        0.5000000E-01     0.000000         0.000000         0.000000         0.000000    
    3  19.99951      20.00005       -0.1277842           0.000000           0.000000           0.000000        0.000000         0.000000         0.000000         0.000000         0.000000         0.000000    
    4  19.99951      20.00009       -0.9147936E-01       0.000000           0.000000          0.1000000       -.5000000         0.000000         0.000000         0.000000         0.000000         0.000000    
    5  19.99951      20.00013       -0.4880409E-01       0.000000           0.000000           0.000000        0.000000         0.000000         0.000000         0.000000         0.000000         0.000000    
 
TUBE  B  E  FLOW          Q [M^3/D]       DIAM.[M]        LEN.[M]        RE         RESIDENCE TIME [D]
   1   1   3   LAMI.         0.04364        0.10000       10.00000        7.19996        1.79991
   2   2   3   LAMI.         0.08830        0.10000       10.00000       14.56929        0.88949
   3   3   4   TURB.         0.25972        0.10000       10.00000       42.85403        0.30241
   4   4   5   LAMI.        -0.04880        0.10000       10.00000        8.05282        1.60929
 

    BUDGET OF THE PIPE SYSTEM OF TIMESTEP    6 IN STRESS PERIOD    2
------------------------------------------------------------------------

  TOTAL SIMULATION TIME   160.000000000000      S
 
       CUMULATIVE VALUES (L**3)           RATES THIS TIME STEP (L**3/T)

            IN:                               IN:
     CONSTANT HEAD =   1.5311557          CONSTANT HEAD =   0.0000000    
      FHLQ BC (LQ) =   3.0000000           FHLQ BC (LQ) =  0.50000000E-01
   MATRIX EXCHANGE =   39.468844        MATRIX EXCHANGE =  0.35000000    
     PIPE RECHARGE =   36.000000          PIPE RECHARGE =  0.10000000    
           WELL BC =   0.0000000                WELL BC =   0.0000000    
       PFP STORAGE =   0.0000000            PFP STORAGE =   0.0000000    

     CUMULATIVE IN =   80.000000               TOTAL IN =  0.50000000    

           OUT:                               OUT:
     CONSTANT HEAD =   0.0000000          CONSTANT HEAD =   0.0000000    
      FHLQ BC (LQ) =   0.0000000           FHLQ BC (LQ) =   0.0000000    
   MATRIX EXCHANGE =   0.0000000        MATRIX EXCHANGE =   0.0000000    
     PIPE RECHARGE =   0.0000000          PIPE RECHARGE =   0.0000000    
           WELL BC =   80.000000                WELL BC =  0.50000000    
       PFP STORAGE =   0.0000000            PFP STORAGE =   0.0000000    

    CUMULATIVE OUT =   80.000000              TOTAL OUT =  0.50000000    

          IN - OUT = -0.11746877E-07           IN - OUT = -0.32723824E-12
     PERCENT ERROR =  0.00                PERCENT ERROR =  0.00


 
 ------------------------NODE WATER BUDGET-----------------------
  STRESS PERIOD           2  TIME STEP           6
 TOTAL SIMULATION TIME   160.000000000000     
 
 FLOW TO THE NODE IN M^3/D
 
 NODE   FIXED HEAD     RECHARGE        QWELL  MATRIX EXCH      STORAGE      TUBE_IN     TUBE_OUT         CADS     FHLQ(LQ)       CAUCHY   CAUCHY(LQ)          QLH     IN - OUT
   1     0.0000       0.0000       0.0000      0.43635E-01   0.0000       0.0000     -0.43635E-01   0.0000       0.0000       0.0000       0.0000       0.0000      0.14574E-10
   2     0.0000       0.0000       0.0000      0.38297E-01   0.0000       0.0000     -0.88297E-01   0.0000      0.50000E-01   0.0000       0.0000       0.0000      0.47695E-10
   3     0.0000       0.0000       0.0000      0.12778       0.0000      0.13193     -0.25972       0.0000       0.0000       0.0000       0.0000       0.0000     -0.12066E-08
   4     0.0000      0.10000     -0.50000      0.91479E-01   0.0000      0.30852       0.0000       0.0000       0.0000       0.0000       0.0000       0.0000      0.99348E-09
   5     0.0000       0.0000       0.0000      0.48804E-01   0.0000       0.0000     -0.48804E-01   0.0000       0.0000       0.0000       0.0000       0.0000      0.15053E-09
 
 SOLVING FOR HEAD 
MODFLOW ITER.#  NEWTON-RAPHSON ITER.#   MAXIMUM NODE HEAD CHANGE
         1                   1                  0.0000000000
         1                   2                  0.0000000000
         1                   3                  0.0000000000
     1 CALLS TO PCG ROUTINE FOR TIME STEP   7 IN STRESS PERIOD    2
     1 TOTAL ITERATIONS
MODFLOW ITER.#  NEWTON-RAPHSON ITER.#   MAXIMUM NODE HEAD CHANGE
         1                   1                  0.0000000000
         1                   2                  0.0000000000
         1                   3                  0.0000000000

 NO OUTPUT CONTROL FOR STRESS PERIOD    2   TIME STEP   7
 
 
 CFPM1 CRITERION OF CONVERGENCE:     0.1000000E-05
 CFPM1 MAXIMUM NUMBER OF ITERATIONS:   100
 
 
 CFPM1 RESULTS +++++++++++++++++++++++++++++++++++++++++++++++++++++++
 
 STRESS PERIOD/TIME STEP           2           7
 
NUMBER OF NEWTON RHAPSON ITERATIONS:     3
 
 ------- RESULTS OF FLOW CALCULATION -------
 
NODE# NODE HEAD[M] MATRIX HEAD [M] EXCHANGE [M^3/D]    CADSFLOW            PFPSFLOW         DIRECT RECHARGE        QWELL         FHLQ            CAUCHY         CAUCHY LQ               QLH              QFIX
    1  19.99951      20.00007       -0.4363529E-01       0.000000           0.000000           0.000000        0.000000         0.000000         0.000000         0.000000         0.000000         0.000000    
    2  19.99951      20.00000       -0.3829710E-01       0.000000           0.000000           0.000000        0.000000        0.5000000E-01     0.000000         0.000000         0.000000         0.000000    
    3  19.99951      20.00005       -0.1277842           0.000000           0.000000           0.000000        0.000000         0.000000         0.000000         0.000000         0.000000         0.000000    
    4  19.99951      20.00009       -0.9147936E-01       0.000000           0.000000          0.1000000       -.5000000         0.000000         0.000000         0.000000         0.000000         0.000000    
    5  19.99951      20.00013       -0.4880409E-01       0.000000           0.000000           0.000000        0.000000         0.000000         0.000000         0.000000         0.000000         0.000000    
 
TUBE  B  E  FLOW          Q [M^3/D]       DIAM.[M]        LEN.[M]        RE         RESIDENCE TIME [D]
   1   1   3   LAMI.         0.04364        0.10000       10.00000        7.19996        1.79991
   2   2   3   LAMI.         0.08830        0.10000       10.00000       14.56929        0.88949
   3   3   4   TURB.         0.25972        0.10000       10.00000       42.85403        0.30241
   4   4   5   LAMI.        -0.04880        0.10000       10.00000        8.05282        1.60929
 

    BUDGET OF THE PIPE SYSTEM OF TIMESTEP    7 IN STRESS PERIOD    2
------------------------------------------------------------------------

  TOTAL SIMULATION TIME   170.000000000000      S
 
       CUMULATIVE VALUES (L**3)           RATES THIS TIME STEP (L**3/T)

            IN:                               IN:
     CONSTANT HEAD =   1.5311557          CONSTANT HEAD =   0.0000000    
      FHLQ BC (LQ) =   3.5000000           FHLQ BC (LQ) =  0.50000000E-01
   MATRIX EXCHANGE =   42.968844        MATRIX EXCHANGE =  0.35000000    
     PIPE RECHARGE =   37.000000          PIPE RECHARGE =  0.10000000    
           WELL BC =   0.0000000                WELL BC =   0.0000000    
       PFP STORAGE =   0.0000000            PFP STORAGE =   0.0000000    

     CUMULATIVE IN =   85.000000               TOTAL IN =  0.50000000    

           OUT:                               OUT:
     CONSTANT HEAD =   0.0000000          CONSTANT HEAD =   0.0000000    
      FHLQ BC (LQ) =   0.0000000           FHLQ BC (LQ) =   0.0000000    
   MATRIX EXCHANGE =   0.0000000        MATRIX EXCHANGE =   0.0000000    
     PIPE RECHARGE =   0.0000000          PIPE RECHARGE =   0.0000000    
           WELL BC =   85.000000                WELL BC =  0.50000000    
       PFP STORAGE =   0.0000000            PFP STORAGE =   0.0000000    

    CUMULATIVE OUT =   85.000000              TOTAL OUT =  0.50000000    

          IN - OUT = -0.11750153E-07           IN - OUT = -0.32723824E-12
     PERCENT ERROR =  0.00                PERCENT ERROR =  0.00


 
 ------------------------NODE WATER BUDGET-----------------------
  STRESS PERIOD           2  TIME STEP           7
 TOTAL SIMULATION TIME   170.000000000000     
 
 FLOW TO THE NODE IN M^3/D
 
 NODE   FIXED HEAD     RECHARGE        QWELL  MATRIX EXCH      STORAGE      TUBE_IN     TUBE_OUT         CADS     FHLQ(LQ)       CAUCHY   CAUCHY(LQ)          QLH     IN - OUT
   1     0.0000       0.0000       0.0000      0.43635E-01   0.0000       0.0000     -0.43635E-01   0.0000       0.0000       0.0000       0.0000       0.0000     -0.32024E-10
   2     0.0000       0.0000       0.0000      0.38297E-01   0.0000       0.0000     -0.88297E-01   0.0000      0.50000E-01   0.0000       0.0000       0.0000     -0.19966E-09
   3     0.0000       0.0000       0.0000      0.12778       0.0000      0.13193     -0.25972       0.0000       0.0000       0.0000       0.0000       0.0000      0.66399E-09
   4     0.0000      0.10000     -0.50000      0.91479E-01   0.0000      0.30852       0.0000       0.0000       0.0000       0.0000       0.0000       0.0000     -0.10070E-08
   5     0.0000       0.0000       0.0000      0.48804E-01   0.0000       0.0000     -0.48804E-01   0.0000       0.0000       0.0000       0.0000       0.0000      0.57438E-09
 
 SOLVING FOR HEAD 
MODFLOW ITER.#  NEWTON-RAPHSON ITER.#   MAXIMUM NODE HEAD CHANGE
         1                   1                  0.0000000000
         1                   2                  0.0000000000
         1                   3                  0.0000000000
     1 CALLS TO PCG ROUTINE FOR TIME STEP   8 IN STRESS PERIOD    2
     1 TOTAL ITERATIONS
MODFLOW ITER.#  NEWTON-RAPHSON ITER.#   MAXIMUM NODE HEAD CHANGE
         1                   1                  0.0000000000
         1                   2                  0.0000000000
         1                   3                  0.0000000000

 NO OUTPUT CONTROL FOR STRESS PERIOD    2   TIME STEP   8
 
 
 CFPM1 CRITERION OF CONVERGENCE:     0.1000000E-05
 CFPM1 MAXIMUM NUMBER OF ITERATIONS:   100
 
 
 CFPM1 RESULTS +++++++++++++++++++++++++++++++++++++++++++++++++++++++
 
 STRESS PERIOD/TIME STEP           2           8
 
NUMBER OF NEWTON RHAPSON ITERATIONS:     3
 
 ------- RESULTS OF FLOW CALCULATION -------
 
NODE# NODE HEAD[M] MATRIX HEAD [M] EXCHANGE [M^3/D]    CADSFLOW            PFPSFLOW         DIRECT RECHARGE        QWELL         FHLQ            CAUCHY         CAUCHY LQ               QLH              QFIX
    1  19.99951      20.00007       -0.4363529E-01       0.000000           0.000000           0.000000        0.000000         0.000000         0.000000         0.000000         0.000000         0.000000    
    2  19.99951      20.00000       -0.3829710E-01       0.000000           0.000000           0.000000        0.000000        0.5000000E-01     0.000000         0.000000         0.000000         0.000000    
    3  19.99951      20.00005       -0.1277842           0.000000           0.000000           0.000000        0.000000         0.000000         0.000000         0.000000         0.000000         0.000000    
    4  19.99951      20.00009       -0.9147936E-01       0.000000           0.000000          0.1000000       -.5000000         0.000000         0.000000         0.000000         0.000000         0.000000    
    5  19.99951      20.00013       -0.4880409E-01       0.000000           0.000000           0.000000        0.000000         0.000000         0.000000         0.000000         0.000000         0.000000    
 
TUBE  B  E  FLOW          Q [M^3/D]       DIAM.[M]        LEN.[M]        RE         RESIDENCE TIME [D]
   1   1   3   LAMI.         0.04364        0.10000       10.00000        7.19996        1.79991
   2   2   3   LAMI.         0.08830        0.10000       10.00000       14.56929        0.88949
   3   3   4   TURB.         0.25972        0.10000       10.00000       42.85403        0.30241
   4   4   5   LAMI.        -0.04880        0.10000       10.00000        8.05282        1.60929
 

    BUDGET OF THE PIPE SYSTEM OF TIMESTEP    8 IN STRESS PERIOD    2
------------------------------------------------------------------------

  TOTAL SIMULATION TIME   180.000000000000      S
 
       CUMULATIVE VALUES (L**3)           RATES THIS TIME STEP (L**3/T)

            IN:                               IN:
     CONSTANT HEAD =   1.5311557          CONSTANT HEAD =   0.0000000    
      FHLQ BC (LQ) =   4.0000000           FHLQ BC (LQ) =  0.50000000E-01
   MATRIX EXCHANGE =   46.468844        MATRIX EXCHANGE =  0.35000000    
     PIPE RECHARGE =   38.000000          PIPE RECHARGE =  0.10000000    
           WELL BC =   0.0000000                WELL BC =   0.0000000    
       PFP STORAGE =   0.0000000            PFP STORAGE =   0.0000000    

     CUMULATIVE IN =   90.000000               TOTAL IN =  0.50000000    

           OUT:                               OUT:
     CONSTANT HEAD =   0.0000000          CONSTANT HEAD =   0.0000000    
      FHLQ BC (LQ) =   0.0000000           FHLQ BC (LQ) =   0.0000000    
   MATRIX EXCHANGE =   0.0000000        MATRIX EXCHANGE =   0.0000000    
     PIPE RECHARGE =   0.0000000          PIPE RECHARGE =   0.0000000    
           WELL BC =   90.000000                WELL BC =  0.50000000    
       PFP STORAGE =   0.0000000            PFP STORAGE =   0.0000000    

    CUMULATIVE OUT =   90.000000              TOTAL OUT =  0.50000000    

          IN - OUT = -0.11747844E-07           IN - OUT =  0.23081537E-12
     PERCENT ERROR =  0.00                PERCENT ERROR =  0.00


 
 ------------------------NODE WATER BUDGET-----------------------
  STRESS PERIOD           2  TIME STEP           8
 TOTAL SIMULATION TIME   180.000000000000     
 
 FLOW TO THE NODE IN M^3/D
 
 NODE   FIXED HEAD     RECHARGE        QWELL  MATRIX EXCH      STORAGE      TUBE_IN     TUBE_OUT         CADS     FHLQ(LQ)       CAUCHY   CAUCHY(LQ)          QLH     IN - OUT
   1     0.0000       0.0000       0.0000      0.43635E-01   0.0000       0.0000     -0.43635E-01   0.0000       0.0000       0.0000       0.0000       0.0000      0.30758E-10
   2     0.0000       0.0000       0.0000      0.38297E-01   0.0000       0.0000     -0.88297E-01   0.0000      0.50000E-01   0.0000       0.0000       0.0000     -0.43435E-09
   3     0.0000       0.0000       0.0000      0.12778       0.0000      0.13193     -0.25972       0.0000       0.0000       0.0000       0.0000       0.0000      0.20332E-08
   4     0.0000      0.10000     -0.50000      0.91479E-01   0.0000      0.30852       0.0000       0.0000       0.0000       0.0000       0.0000       0.0000     -0.20716E-08
   5     0.0000       0.0000       0.0000      0.48804E-01   0.0000       0.0000     -0.48804E-01   0.0000       0.0000       0.0000       0.0000       0.0000      0.44223E-09
 
 SOLVING FOR HEAD 
MODFLOW ITER.#  NEWTON-RAPHSON ITER.#   MAXIMUM NODE HEAD CHANGE
         1                   1                  0.0000000000
         1                   2                  0.0000000000
         1                   3                  0.0000000000
     1 CALLS TO PCG ROUTINE FOR TIME STEP   9 IN STRESS PERIOD    2
     1 TOTAL ITERATIONS
MODFLOW ITER.#  NEWTON-RAPHSON ITER.#   MAXIMUM NODE HEAD CHANGE
         1                   1                  0.0000000000
         1                   2                  0.0000000000
         1                   3                  0.0000000000

 NO OUTPUT CONTROL FOR STRESS PERIOD    2   TIME STEP   9
 
 
 CFPM1 CRITERION OF CONVERGENCE:     0.1000000E-05
 CFPM1 MAXIMUM NUMBER OF ITERATIONS:   100
 
 
 CFPM1 RESULTS +++++++++++++++++++++++++++++++++++++++++++++++++++++++
 
 STRESS PERIOD/TIME STEP           2           9
 
NUMBER OF NEWTON RHAPSON ITERATIONS:     3
 
 ------- RESULTS OF FLOW CALCULATION -------
 
NODE# NODE HEAD[M] MATRIX HEAD [M] EXCHANGE [M^3/D]    CADSFLOW            PFPSFLOW         DIRECT RECHARGE        QWELL         FHLQ            CAUCHY         CAUCHY LQ               QLH              QFIX
    1  19.99951      20.00007       -0.4363529E-01       0.000000           0.000000           0.000000        0.000000         0.000000         0.000000         0.000000         0.000000         0.000000    
    2  19.99951      20.00000       -0.3829711E-01       0.000000           0.000000           0.000000        0.000000        0.5000000E-01     0.000000         0.000000         0.000000         0.000000    
    3  19.99951      20.00005       -0.1277842           0.000000           0.000000           0.000000        0.000000         0.000000         0.000000         0.000000         0.000000         0.000000    
    4  19.99951      20.00009       -0.9147936E-01       0.000000           0.000000          0.1000000       -.5000000         0.000000         0.000000         0.000000         0.000000         0.000000    
    5  19.99951      20.00013       -0.4880409E-01       0.000000           0.000000           0.000000        0.000000         0.000000         0.000000         0.000000         0.000000         0.000000    
 
TUBE  B  E  FLOW          Q [M^3/D]       DIAM.[M]        LEN.[M]        RE         RESIDENCE TIME [D]
   1   1   3   LAMI.         0.04364        0.10000       10.00000        7.19996        1.79991
   2   2   3   LAMI.         0.08830        0.10000       10.00000       14.56929        0.88949
   3   3   4   TURB.         0.25972        0.10000       10.00000       42.85403        0.30241
   4   4   5   LAMI.        -0.04880        0.10000       10.00000        8.05282        1.60929
 

    BUDGET OF THE PIPE SYSTEM OF TIMESTEP    9 IN STRESS PERIOD    2
------------------------------------------------------------------------

  TOTAL SIMULATION TIME   190.000000000000      S
 
       CUMULATIVE VALUES (L**3)           RATES THIS TIME STEP (L**3/T)

            IN:                               IN:
     CONSTANT HEAD =   1.5311557          CONSTANT HEAD =   0.0000000    
      FHLQ BC (LQ) =   4.5000000           FHLQ BC (LQ) =  0.50000000E-01
   MATRIX EXCHANGE =   49.968844        MATRIX EXCHANGE =  0.35000000    
     PIPE RECHARGE =   39.000000          PIPE RECHARGE =  0.10000000    
           WELL BC =   0.0000000                WELL BC =   0.0000000    
       PFP STORAGE =   0.0000000            PFP STORAGE =   0.0000000    

     CUMULATIVE IN =   95.000000               TOTAL IN =  0.50000000    

           OUT:                               OUT:
     CONSTANT HEAD =   0.0000000          CONSTANT HEAD =   0.0000000    
      FHLQ BC (LQ) =   0.0000000           FHLQ BC (LQ) =   0.0000000    
   MATRIX EXCHANGE =   0.0000000        MATRIX EXCHANGE =   0.0000000    
     PIPE RECHARGE =   0.0000000          PIPE RECHARGE =   0.0000000    
           WELL BC =   95.000000                WELL BC =  0.50000000    
       PFP STORAGE =   0.0000000            PFP STORAGE =   0.0000000    

    CUMULATIVE OUT =   95.000000              TOTAL OUT =  0.50000000    

          IN - OUT = -0.11742749E-07           IN - OUT =  0.50986992E-12
     PERCENT ERROR =  0.00                PERCENT ERROR =  0.00


 
 ------------------------NODE WATER BUDGET-----------------------
  STRESS PERIOD           2  TIME STEP           9
 TOTAL SIMULATION TIME   190.000000000000     
 
 FLOW TO THE NODE IN M^3/D
 
 NODE   FIXED HEAD     RECHARGE        QWELL  MATRIX EXCH      STORAGE      TUBE_IN     TUBE_OUT         CADS     FHLQ(LQ)       CAUCHY   CAUCHY(LQ)          QLH     IN - OUT
   1     0.0000       0.0000       0.0000      0.43635E-01   0.0000       0.0000     -0.43635E-01   0.0000       0.0000       0.0000       0.0000       0.0000      0.20175E-11
   2     0.0000       0.0000       0.0000      0.38297E-01   0.0000       0.0000     -0.88297E-01   0.0000      0.50000E-01   0.0000       0.0000       0.0000     -0.51984E-09
   3     0.0000       0.0000       0.0000      0.12778       0.0000      0.13193     -0.25972       0.0000       0.0000       0.0000       0.0000       0.0000      0.11651E-08
   4     0.0000      0.10000     -0.50000      0.91479E-01   0.0000      0.30852       0.0000       0.0000       0.0000       0.0000       0.0000       0.0000     -0.45346E-09
   5     0.0000       0.0000       0.0000      0.48804E-01   0.0000       0.0000     -0.48804E-01   0.0000       0.0000       0.0000       0.0000       0.0000     -0.19332E-09
 
 SOLVING FOR HEAD 
MODFLOW ITER.#  NEWTON-RAPHSON ITER.#   MAXIMUM NODE HEAD CHANGE
         1                   1                  0.0000000000
         1                   2                  0.0000000000
         1                   3                  0.0000000000
     1 CALLS TO PCG ROUTINE FOR TIME STEP  10 IN STRESS PERIOD    2
     1 TOTAL ITERATIONS

 MAXIMUM HEAD CHANGE FOR EACH ITERATION (1 INDICATES THE FIRST INNER ITERATION):

    HEAD CHANGE    HEAD CHANGE    HEAD CHANGE    HEAD CHANGE    HEAD CHANGE 
   LAYER,ROW,COL  LAYER,ROW,COL  LAYER,ROW,COL  LAYER,ROW,COL  LAYER,ROW,COL
 ---------------------------------------------------------------------------
  1 -0.5551E-10
   (  3,  1,  4)

 MAXIMUM RESIDUAL FOR EACH ITERATION (1 INDICATES THE FIRST INNER ITERATION):

    RESIDUAL       RESIDUAL       RESIDUAL       RESIDUAL       RESIDUAL    
   LAYER,ROW,COL  LAYER,ROW,COL  LAYER,ROW,COL  LAYER,ROW,COL  LAYER,ROW,COL
 ---------------------------------------------------------------------------
  1  0.3771E-07
   (  3,  2,  3)


MODFLOW ITER.#  NEWTON-RAPHSON ITER.#   MAXIMUM NODE HEAD CHANGE
         1                   1                  0.0000000000
         1                   2                  0.0000000000
         1                   3                  0.0000000000

 NO OUTPUT CONTROL FOR STRESS PERIOD    2   TIME STEP  10
 
 
 CFPM1 CRITERION OF CONVERGENCE:     0.1000000E-05
 CFPM1 MAXIMUM NUMBER OF ITERATIONS:   100
 
 
 CFPM1 RESULTS +++++++++++++++++++++++++++++++++++++++++++++++++++++++
 
 STRESS PERIOD/TIME STEP           2          10
 
NUMBER OF NEWTON RHAPSON ITERATIONS:     3
 
 ------- RESULTS OF FLOW CALCULATION -------
 
NODE# NODE HEAD[M] MATRIX HEAD [M] EXCHANGE [M^3/D]    CADSFLOW            PFPSFLOW         DIRECT RECHARGE        QWELL         FHLQ            CAUCHY         CAUCHY LQ               QLH              QFIX
    1  19.99951      20.00007       -0.4363529E-01       0.000000           0.000000           0.000000        0.000000         0.000000         0.000000         0.000000         0.000000         0.000000    
    2  19.99951      20.00000       -0.3829711E-01       0.000000           0.000000           0.000000        0.000000        0.5000000E-01     0.000000         0.000000         0.000000         0.000000    
    3  19.99951      20.00005       -0.1277842           0.000000           0.000000           0.000000        0.000000         0.000000         0.000000         0.000000         0.000000         0.000000    
    4  19.99951      20.00009       -0.9147936E-01       0.000000           0.000000          0.1000000       -.5000000         0.000000         0.000000         0.000000         0.000000         0.000000    
    5  19.99951      20.00013       -0.4880409E-01       0.000000           0.000000           0.000000        0.000000         0.000000         0.000000         0.000000         0.000000         0.000000    
 
TUBE  B  E  FLOW          Q [M^3/D]       DIAM.[M]        LEN.[M]        RE         RESIDENCE TIME [D]
   1   1   3   LAMI.         0.04364        0.10000       10.00000        7.19996        1.79991
   2   2   3   LAMI.         0.08830        0.10000       10.00000       14.56929        0.88949
   3   3   4   TURB.         0.25972        0.10000       10.00000       42.85403        0.30241
   4   4   5   LAMI.        -0.04880        0.10000       10.00000        8.05282        1.60929
 

    BUDGET OF THE PIPE SYSTEM OF TIMESTEP   10 IN STRESS PERIOD    2
------------------------------------------------------------------------

  TOTAL SIMULATION TIME   200.000000000000      S
 
       CUMULATIVE VALUES (L**3)           RATES THIS TIME STEP (L**3/T)

            IN:                               IN:
     CONSTANT HEAD =   1.5311557          CONSTANT HEAD =   0.0000000    
      FHLQ BC (LQ) =   5.0000000           FHLQ BC (LQ) =  0.50000000E-01
   MATRIX EXCHANGE =   53.468844        MATRIX EXCHANGE =  0.35000000    
     PIPE RECHARGE =   40.000000          PIPE RECHARGE =  0.10000000    
           WELL BC =   0.0000000                WELL BC =   0.0000000    
       PFP STORAGE =   0.0000000            PFP STORAGE =   0.0000000    

     CUMULATIVE IN =   100.00000               TOTAL IN =  0.50000000    

           OUT:                               OUT:
     CONSTANT HEAD =   0.0000000          CONSTANT HEAD =   0.0000000    
      FHLQ BC (LQ) =   0.0000000           FHLQ BC (LQ) =   0.0000000    
   MATRIX EXCHANGE =   0.0000000        MATRIX EXCHANGE =   0.0000000    
     PIPE RECHARGE =   0.0000000          PIPE RECHARGE =   0.0000000    
           WELL BC =   100.00000                WELL BC =  0.50000000    
       PFP STORAGE =   0.0000000            PFP STORAGE =   0.0000000    

    CUMULATIVE OUT =   100.00000              TOTAL OUT =  0.50000000    

          IN - OUT = -0.11743225E-07           IN - OUT = -0.48183679E-13
     PERCENT ERROR =  0.00                PERCENT ERROR =  0.00


 
 ------------------------NODE WATER BUDGET-----------------------
  STRESS PERIOD           2  TIME STEP          10
 TOTAL SIMULATION TIME   200.000000000000     
 
 FLOW TO THE NODE IN M^3/D
 
 NODE   FIXED HEAD     RECHARGE        QWELL  MATRIX EXCH      STORAGE      TUBE_IN     TUBE_OUT         CADS     FHLQ(LQ)       CAUCHY   CAUCHY(LQ)          QLH     IN - OUT
   1     0.0000       0.0000       0.0000      0.43635E-01   0.0000       0.0000     -0.43635E-01   0.0000       0.0000       0.0000       0.0000       0.0000      0.30479E-10
   2     0.0000       0.0000       0.0000      0.38297E-01   0.0000       0.0000     -0.88297E-01   0.0000      0.50000E-01   0.0000       0.0000       0.0000      0.40849E-09
   3     0.0000       0.0000       0.0000      0.12778       0.0000      0.13193     -0.25972       0.0000       0.0000       0.0000       0.0000       0.0000     -0.19677E-08
   4     0.0000      0.10000     -0.50000      0.91479E-01   0.0000      0.30852       0.0000       0.0000       0.0000       0.0000       0.0000       0.0000      0.16325E-08
   5     0.0000       0.0000       0.0000      0.48804E-01   0.0000       0.0000     -0.48804E-01   0.0000       0.0000       0.0000       0.0000       0.0000     -0.10383E-09
1
  VOLUMETRIC BUDGET FOR ENTIRE MODEL AT END OF TIME STEP 10 IN STRESS PERIOD   2
  ------------------------------------------------------------------------------

     CUMULATIVE VOLUMES      L**3       RATES FOR THIS TIME STEP      L**3/T
     ------------------                 ------------------------

           IN:                                      IN:
           ---                                      ---
             STORAGE =       2.1327E-05               STORAGE =       1.4228E-13
       CONSTANT HEAD =           3.8297         CONSTANT HEAD =       3.8297E-02
            RECHARGE =         440.0000              RECHARGE =           1.1000
               PIPES =           0.0000                 PIPES =           0.0000

            TOTAL IN =         443.8297              TOTAL IN =           1.1383

          OUT:                                     OUT:
          ----                                     ----
             STORAGE =       2.8998E-05               STORAGE =           0.0000
       CONSTANT HEAD =         390.3609         CONSTANT HEAD =           0.7883
            RECHARGE =           0.0000              RECHARGE =           0.0000
               PIPES =          53.4688                 PIPES =           0.3500

           TOTAL OUT =         443.8298             TOTAL OUT =           1.1383

            IN - OUT =      -7.4113E-05              IN - OUT =      -2.5945E-07

 PERCENT DISCREPANCY =           0.00     PERCENT DISCREPANCY =           0.00






          TIME SUMMARY AT END OF TIME STEP  10 IN STRESS PERIOD    2
                    SECONDS     MINUTES      HOURS       DAYS        YEARS
                    -----------------------------------------------------------
   TIME STEP LENGTH 8.64000E+05  14400.      240.00      10.000     2.73785E-02
 STRESS PERIOD TIME 8.64000E+06 1.44000E+05  2400.0      100.00     0.27379    
         TOTAL TIME 1.72800E+07 2.88000E+05  4800.0      200.00     0.54757    
1
1
                            STRESS PERIOD NO.    3, LENGTH =   100.0000    
                            -----------------------------------------------

                              NUMBER OF TIME STEPS =    10

                               MULTIPLIER FOR DELT =     1.000

                            INITIAL TIME STEP SIZE =   10.00000    



                           RECHARGE
 READING ON UNIT   19 WITH FORMAT: (4E15.6)            
 
 CFP1RCH1RP SUBROUTINE READING FROM UNIT           53
 READING INPUT USED TO PARTICIAN RECHARGE AND WELL DATA
 0.0    0.0    0.0    1.0    0.0   
 DATA FOR WELLS:
 0.0    0.0    0.0   -.50    0.0   
 
 SOLVING FOR HEAD 
MODFLOW ITER.#  NEWTON-RAPHSON ITER.#   MAXIMUM NODE HEAD CHANGE
         1                   1                  0.0001592267
         1                   2                  0.0000000035
         1                   3                  0.0000000000
MODFLOW ITER.#  NEWTON-RAPHSON ITER.#   MAXIMUM NODE HEAD CHANGE
         2                   1                  0.0001074300
         2                   2                  0.0000000001
         2                   3                  0.0000000000
MODFLOW ITER.#  NEWTON-RAPHSON ITER.#   MAXIMUM NODE HEAD CHANGE
         3                   1                  0.0000063628
         3                   2                  0.0000000000
         3                   3                  0.0000000000
MODFLOW ITER.#  NEWTON-RAPHSON ITER.#   MAXIMUM NODE HEAD CHANGE
         4                   1                  0.0000003769
         4                   2                  0.0000000000
         4                   3                  0.0000000000
MODFLOW ITER.#  NEWTON-RAPHSON ITER.#   MAXIMUM NODE HEAD CHANGE
         5                   1                  0.0000000218
         5                   2                  0.0000000000
         5                   3                  0.0000000000


     5 CALLS TO PCG ROUTINE FOR TIME STEP   1 IN STRESS PERIOD    3
    26 TOTAL ITERATIONS
MODFLOW ITER.#  NEWTON-RAPHSON ITER.#   MAXIMUM NODE HEAD CHANGE
         5                   1                  0.0000000006
         5                   2                  0.0000000000
         5                   3                  0.0000000000

 NO OUTPUT CONTROL FOR STRESS PERIOD    3   TIME STEP   1
 
 
 CFPM1 CRITERION OF CONVERGENCE:     0.1000000E-05
 CFPM1 MAXIMUM NUMBER OF ITERATIONS:   100
 
 
 CFPM1 RESULTS +++++++++++++++++++++++++++++++++++++++++++++++++++++++
 
 STRESS PERIOD/TIME STEP           3           1
 
NUMBER OF NEWTON RHAPSON ITERATIONS:     3
 
 ------- RESULTS OF FLOW CALCULATION -------
 
NODE# NODE HEAD[M] MATRIX HEAD [M] EXCHANGE [M^3/D]    CADSFLOW            PFPSFLOW         DIRECT RECHARGE        QWELL         FHLQ            CAUCHY         CAUCHY LQ               QLH              QFIX
    1  19.99979      20.00017       -0.3016866E-01       0.000000           0.000000           0.000000        0.000000         0.000000         0.000000         0.000000         0.000000         0.000000    
    2  19.99979      20.00000       -0.1683964E-01       0.000000           0.000000           0.000000        0.000000        0.5000000E-01     0.000000         0.000000         0.000000         0.000000    
    3  19.99979      20.00016       -0.8757137E-01       0.000000           0.000000           0.000000        0.000000         0.000000         0.000000         0.000000         0.000000         0.000000    
    4  19.99979      20.00025       -0.7284042E-01       0.000000           0.000000          0.2000000       -.5000000         0.000000         0.000000         0.000000         0.000000         0.000000    
    5  19.99979      20.00033       -0.4257990E-01       0.000000           0.000000           0.000000        0.000000         0.000000         0.000000         0.000000         0.000000         0.000000    
 
TUBE  B  E  FLOW          Q [M^3/D]       DIAM.[M]        LEN.[M]        RE         RESIDENCE TIME [D]
   1   1   3   LAMI.         0.03017        0.10000       10.00000        4.97792        2.60336
   2   2   3   LAMI.         0.06684        0.10000       10.00000       11.02875        1.17505
   3   3   4   TURB.         0.18458        0.10000       10.00000       30.45621        0.42551
   4   4   5   LAMI.        -0.04258        0.10000       10.00000        7.02581        1.84453
 

    BUDGET OF THE PIPE SYSTEM OF TIMESTEP    1 IN STRESS PERIOD    3
------------------------------------------------------------------------

  TOTAL SIMULATION TIME   210.000000000000      S
 
       CUMULATIVE VALUES (L**3)           RATES THIS TIME STEP (L**3/T)

            IN:                               IN:
     CONSTANT HEAD =   1.5311557          CONSTANT HEAD =   0.0000000    
      FHLQ BC (LQ) =   5.5000000           FHLQ BC (LQ) =  0.50000000E-01
   MATRIX EXCHANGE =   55.968844        MATRIX EXCHANGE =  0.25000000    
     PIPE RECHARGE =   42.000000          PIPE RECHARGE =  0.20000000    
           WELL BC =   0.0000000                WELL BC =   0.0000000    
       PFP STORAGE =   0.0000000            PFP STORAGE =   0.0000000    

     CUMULATIVE IN =   105.00000               TOTAL IN =  0.50000000    

           OUT:                               OUT:
     CONSTANT HEAD =   0.0000000          CONSTANT HEAD =   0.0000000    
      FHLQ BC (LQ) =   0.0000000           FHLQ BC (LQ) =   0.0000000    
   MATRIX EXCHANGE =   0.0000000        MATRIX EXCHANGE =   0.0000000    
     PIPE RECHARGE =   0.0000000          PIPE RECHARGE =   0.0000000    
           WELL BC =   105.00000                WELL BC =  0.50000000    
       PFP STORAGE =   0.0000000            PFP STORAGE =   0.0000000    

    CUMULATIVE OUT =   105.00000              TOTAL OUT =  0.50000000    

          IN - OUT = -0.11747552E-07           IN - OUT = -0.43307025E-12
     PERCENT ERROR =  0.00                PERCENT ERROR =  0.00


 
 ------------------------NODE WATER BUDGET-----------------------
  STRESS PERIOD           3  TIME STEP           1
 TOTAL SIMULATION TIME   210.000000000000     
 
 FLOW TO THE NODE IN M^3/D
 
 NODE   FIXED HEAD     RECHARGE        QWELL  MATRIX EXCH      STORAGE      TUBE_IN     TUBE_OUT         CADS     FHLQ(LQ)       CAUCHY   CAUCHY(LQ)          QLH     IN - OUT
   1     0.0000       0.0000       0.0000      0.30169E-01   0.0000       0.0000     -0.30169E-01   0.0000       0.0000       0.0000       0.0000       0.0000     -0.23733E-09
   2     0.0000       0.0000       0.0000      0.16840E-01   0.0000       0.0000     -0.66840E-01   0.0000      0.50000E-01   0.0000       0.0000       0.0000     -0.31617E-09
   3     0.0000       0.0000       0.0000      0.87571E-01   0.0000      0.97008E-01 -0.18458       0.0000       0.0000       0.0000       0.0000       0.0000      0.76589E-09
   4     0.0000      0.20000     -0.50000      0.72840E-01   0.0000      0.22716       0.0000       0.0000       0.0000       0.0000       0.0000       0.0000     -0.17264E-09
   5     0.0000       0.0000       0.0000      0.42580E-01   0.0000       0.0000     -0.42580E-01   0.0000       0.0000       0.0000       0.0000       0.0000     -0.40192E-10
 
 SOLVING FOR HEAD 
MODFLOW ITER.#  NEWTON-RAPHSON ITER.#   MAXIMUM NODE HEAD CHANGE
         1                   1                  0.0000000000
         1                   2                  0.0000000000
         1                   3                  0.0000000000
     1 CALLS TO PCG ROUTINE FOR TIME STEP   2 IN STRESS PERIOD    3
     1 TOTAL ITERATIONS
MODFLOW ITER.#  NEWTON-RAPHSON ITER.#   MAXIMUM NODE HEAD CHANGE
         1                   1                  0.0000000003
         1                   2                  0.0000000000
         1                   3                  0.0000000000

 NO OUTPUT CONTROL FOR STRESS PERIOD    3   TIME STEP   2
 
 
 CFPM1 CRITERION OF CONVERGENCE:     0.1000000E-05
 CFPM1 MAXIMUM NUMBER OF ITERATIONS:   100
 
 
 CFPM1 RESULTS +++++++++++++++++++++++++++++++++++++++++++++++++++++++
 
 STRESS PERIOD/TIME STEP           3           2
 
NUMBER OF NEWTON RHAPSON ITERATIONS:     3
 
 ------- RESULTS OF FLOW CALCULATION -------
 
NODE# NODE HEAD[M] MATRIX HEAD [M] EXCHANGE [M^3/D]    CADSFLOW            PFPSFLOW         DIRECT RECHARGE        QWELL         FHLQ            CAUCHY         CAUCHY LQ               QLH              QFIX
    1  19.99979      20.00017       -0.3016868E-01       0.000000           0.000000           0.000000        0.000000         0.000000         0.000000         0.000000         0.000000         0.000000    
    2  19.99979      20.00000       -0.1683962E-01       0.000000           0.000000           0.000000        0.000000        0.5000000E-01     0.000000         0.000000         0.000000         0.000000    
    3  19.99979      20.00016       -0.8757138E-01       0.000000           0.000000           0.000000        0.000000         0.000000         0.000000         0.000000         0.000000         0.000000    
    4  19.99979      20.00025       -0.7284040E-01       0.000000           0.000000          0.2000000       -.5000000         0.000000         0.000000         0.000000         0.000000         0.000000    
    5  19.99979      20.00033       -0.4257993E-01       0.000000           0.000000           0.000000        0.000000         0.000000         0.000000         0.000000         0.000000         0.000000    
 
TUBE  B  E  FLOW          Q [M^3/D]       DIAM.[M]        LEN.[M]        RE         RESIDENCE TIME [D]
   1   1   3   LAMI.         0.03017        0.10000       10.00000        4.97792        2.60336
   2   2   3   LAMI.         0.06684        0.10000       10.00000       11.02874        1.17505
   3   3   4   TURB.         0.18458        0.10000       10.00000       30.45621        0.42551
   4   4   5   LAMI.        -0.04258        0.10000       10.00000        7.02582        1.84453
 

    BUDGET OF THE PIPE SYSTEM OF TIMESTEP    2 IN STRESS PERIOD    3
------------------------------------------------------------------------

  TOTAL SIMULATION TIME   220.000000000000      S
 
       CUMULATIVE VALUES (L**3)           RATES THIS TIME STEP (L**3/T)

            IN:                               IN:
     CONSTANT HEAD =   1.5311557          CONSTANT HEAD =   0.0000000    
      FHLQ BC (LQ) =   6.0000000           FHLQ BC (LQ) =  0.50000000E-01
   MATRIX EXCHANGE =   58.468844        MATRIX EXCHANGE =  0.25000000    
     PIPE RECHARGE =   44.000000          PIPE RECHARGE =  0.20000000    
           WELL BC =   0.0000000                WELL BC =   0.0000000    
       PFP STORAGE =   0.0000000            PFP STORAGE =   0.0000000    

     CUMULATIVE IN =   110.00000               TOTAL IN =  0.50000000    

           OUT:                               OUT:
     CONSTANT HEAD =   0.0000000          CONSTANT HEAD =   0.0000000    
      FHLQ BC (LQ) =   0.0000000           FHLQ BC (LQ) =   0.0000000    
   MATRIX EXCHANGE =   0.0000000        MATRIX EXCHANGE =   0.0000000    
     PIPE RECHARGE =   0.0000000          PIPE RECHARGE =   0.0000000    
           WELL BC =   110.00000                WELL BC =  0.50000000    
       PFP STORAGE =   0.0000000            PFP STORAGE =   0.0000000    

    CUMULATIVE OUT =   110.00000              TOTAL OUT =  0.50000000    

          IN - OUT = -0.11751887E-07           IN - OUT = -0.43307025E-12
     PERCENT ERROR =  0.00                PERCENT ERROR =  0.00


 
 ------------------------NODE WATER BUDGET-----------------------
  STRESS PERIOD           3  TIME STEP           2
 TOTAL SIMULATION TIME   220.000000000000     
 
 FLOW TO THE NODE IN M^3/D
 
 NODE   FIXED HEAD     RECHARGE        QWELL  MATRIX EXCH      STORAGE      TUBE_IN     TUBE_OUT         CADS     FHLQ(LQ)       CAUCHY   CAUCHY(LQ)          QLH     IN - OUT
   1     0.0000       0.0000       0.0000      0.30169E-01   0.0000       0.0000     -0.30169E-01   0.0000       0.0000       0.0000       0.0000       0.0000      0.26495E-09
   2     0.0000       0.0000       0.0000      0.16840E-01   0.0000       0.0000     -0.66840E-01   0.0000      0.50000E-01   0.0000       0.0000       0.0000      0.37908E-09
   3     0.0000       0.0000       0.0000      0.87571E-01   0.0000      0.97008E-01 -0.18458       0.0000       0.0000       0.0000       0.0000       0.0000     -0.20996E-08
   4     0.0000      0.20000     -0.50000      0.72840E-01   0.0000      0.22716       0.0000       0.0000       0.0000       0.0000       0.0000       0.0000      0.15511E-08
   5     0.0000       0.0000       0.0000      0.42580E-01   0.0000       0.0000     -0.42580E-01   0.0000       0.0000       0.0000       0.0000       0.0000     -0.95960E-10
 
 SOLVING FOR HEAD 
MODFLOW ITER.#  NEWTON-RAPHSON ITER.#   MAXIMUM NODE HEAD CHANGE
         1                   1                  0.0000000000
         1                   2                  0.0000000000
         1                   3                  0.0000000000
     1 CALLS TO PCG ROUTINE FOR TIME STEP   3 IN STRESS PERIOD    3
     1 TOTAL ITERATIONS
MODFLOW ITER.#  NEWTON-RAPHSON ITER.#   MAXIMUM NODE HEAD CHANGE
         1                   1                  0.0000000004
         1                   2                  0.0000000000
         1                   3                  0.0000000000

 NO OUTPUT CONTROL FOR STRESS PERIOD    3   TIME STEP   3
 
 
 CFPM1 CRITERION OF CONVERGENCE:     0.1000000E-05
 CFPM1 MAXIMUM NUMBER OF ITERATIONS:   100
 
 
 CFPM1 RESULTS +++++++++++++++++++++++++++++++++++++++++++++++++++++++
 
 STRESS PERIOD/TIME STEP           3           3
 
NUMBER OF NEWTON RHAPSON ITERATIONS:     3
 
 ------- RESULTS OF FLOW CALCULATION -------
 
NODE# NODE HEAD[M] MATRIX HEAD [M] EXCHANGE [M^3/D]    CADSFLOW            PFPSFLOW         DIRECT RECHARGE        QWELL         FHLQ            CAUCHY         CAUCHY LQ               QLH              QFIX
    1  19.99979      20.00017       -0.3016868E-01       0.000000           0.000000           0.000000        0.000000         0.000000         0.000000         0.000000         0.000000         0.000000    
    2  19.99979      20.00000       -0.1683958E-01       0.000000           0.000000           0.000000        0.000000        0.5000000E-01     0.000000         0.000000         0.000000         0.000000    
    3  19.99979      20.00016       -0.8757136E-01       0.000000           0.000000           0.000000        0.000000         0.000000         0.000000         0.000000         0.000000         0.000000    
    4  19.99979      20.00025       -0.7284044E-01       0.000000           0.000000          0.2000000       -.5000000         0.000000         0.000000         0.000000         0.000000         0.000000    
    5  19.99979      20.00033       -0.4257993E-01       0.000000           0.000000           0.000000        0.000000         0.000000         0.000000         0.000000         0.000000         0.000000    
 
TUBE  B  E  FLOW          Q [M^3/D]       DIAM.[M]        LEN.[M]        RE         RESIDENCE TIME [D]
   1   1   3   LAMI.         0.03017        0.10000       10.00000        4.97792        2.60336
   2   2   3   LAMI.         0.06684        0.10000       10.00000       11.02874        1.17505
   3   3   4   TURB.         0.18458        0.10000       10.00000       30.45620        0.42551
   4   4   5   LAMI.        -0.04258        0.10000       10.00000        7.02582        1.84453
 

    BUDGET OF THE PIPE SYSTEM OF TIMESTEP    3 IN STRESS PERIOD    3
------------------------------------------------------------------------

  TOTAL SIMULATION TIME   230.000000000000      S
 
       CUMULATIVE VALUES (L**3)           RATES THIS TIME STEP (L**3/T)

            IN:                               IN:
     CONSTANT HEAD =   1.5311557          CONSTANT HEAD =   0.0000000    
      FHLQ BC (LQ) =   6.5000000           FHLQ BC (LQ) =  0.50000000E-01
   MATRIX EXCHANGE =   60.968844        MATRIX EXCHANGE =  0.25000000    
     PIPE RECHARGE =   46.000000          PIPE RECHARGE =  0.20000000    
           WELL BC =   0.0000000                WELL BC =   0.0000000    
       PFP STORAGE =   0.0000000            PFP STORAGE =   0.0000000    

     CUMULATIVE IN =   115.00000               TOTAL IN =  0.50000000    

           OUT:                               OUT:
     CONSTANT HEAD =   0.0000000          CONSTANT HEAD =   0.0000000    
      FHLQ BC (LQ) =   0.0000000           FHLQ BC (LQ) =   0.0000000    
   MATRIX EXCHANGE =   0.0000000        MATRIX EXCHANGE =   0.0000000    
     PIPE RECHARGE =   0.0000000          PIPE RECHARGE =   0.0000000    
           WELL BC =   115.00000                WELL BC =  0.50000000    
       PFP STORAGE =   0.0000000            PFP STORAGE =   0.0000000    

    CUMULATIVE OUT =   115.00000              TOTAL OUT =  0.50000000    

          IN - OUT = -0.11753428E-07           IN - OUT = -0.15404344E-12
     PERCENT ERROR =  0.00                PERCENT ERROR =  0.00


 
 ------------------------NODE WATER BUDGET-----------------------
  STRESS PERIOD           3  TIME STEP           3
 TOTAL SIMULATION TIME   230.000000000000     
 
 FLOW TO THE NODE IN M^3/D
 
 NODE   FIXED HEAD     RECHARGE        QWELL  MATRIX EXCH      STORAGE      TUBE_IN     TUBE_OUT         CADS     FHLQ(LQ)       CAUCHY   CAUCHY(LQ)          QLH     IN - OUT
   1     0.0000       0.0000       0.0000      0.30169E-01   0.0000       0.0000     -0.30169E-01   0.0000       0.0000       0.0000       0.0000       0.0000     -0.43013E-10
   2     0.0000       0.0000       0.0000      0.16840E-01   0.0000       0.0000     -0.66840E-01   0.0000      0.50000E-01   0.0000       0.0000       0.0000     -0.40915E-09
   3     0.0000       0.0000       0.0000      0.87571E-01   0.0000      0.97008E-01 -0.18458       0.0000       0.0000       0.0000       0.0000       0.0000      0.27834E-09
   4     0.0000      0.20000     -0.50000      0.72840E-01   0.0000      0.22716       0.0000       0.0000       0.0000       0.0000       0.0000       0.0000      0.41103E-09
   5     0.0000       0.0000       0.0000      0.42580E-01   0.0000       0.0000     -0.42580E-01   0.0000       0.0000       0.0000       0.0000       0.0000     -0.23737E-09
 
 SOLVING FOR HEAD 
MODFLOW ITER.#  NEWTON-RAPHSON ITER.#   MAXIMUM NODE HEAD CHANGE
         1                   1                  0.0000000000
         1                   2                  0.0000000000
         1                   3                  0.0000000000
     1 CALLS TO PCG ROUTINE FOR TIME STEP   4 IN STRESS PERIOD    3
     1 TOTAL ITERATIONS
MODFLOW ITER.#  NEWTON-RAPHSON ITER.#   MAXIMUM NODE HEAD CHANGE
         1                   1                  0.0000000002
         1                   2                  0.0000000000
         1                   3                  0.0000000000

 NO OUTPUT CONTROL FOR STRESS PERIOD    3   TIME STEP   4
 
 
 CFPM1 CRITERION OF CONVERGENCE:     0.1000000E-05
 CFPM1 MAXIMUM NUMBER OF ITERATIONS:   100
 
 
 CFPM1 RESULTS +++++++++++++++++++++++++++++++++++++++++++++++++++++++
 
 STRESS PERIOD/TIME STEP           3           4
 
NUMBER OF NEWTON RHAPSON ITERATIONS:     3
 
 ------- RESULTS OF FLOW CALCULATION -------
 
NODE# NODE HEAD[M] MATRIX HEAD [M] EXCHANGE [M^3/D]    CADSFLOW            PFPSFLOW         DIRECT RECHARGE        QWELL         FHLQ            CAUCHY         CAUCHY LQ               QLH              QFIX
    1  19.99979      20.00017       -0.3016868E-01       0.000000           0.000000           0.000000        0.000000         0.000000         0.000000         0.000000         0.000000         0.000000    
    2  19.99979      20.00000       -0.1683957E-01       0.000000           0.000000           0.000000        0.000000        0.5000000E-01     0.000000         0.000000         0.000000         0.000000    
    3  19.99979      20.00016       -0.8757137E-01       0.000000           0.000000           0.000000        0.000000         0.000000         0.000000         0.000000         0.000000         0.000000    
    4  19.99979      20.00025       -0.7284044E-01       0.000000           0.000000          0.2000000       -.5000000         0.000000         0.000000         0.000000         0.000000         0.000000    
    5  19.99979      20.00033       -0.4257994E-01       0.000000           0.000000           0.000000        0.000000         0.000000         0.000000         0.000000         0.000000         0.000000    
 
TUBE  B  E  FLOW          Q [M^3/D]       DIAM.[M]        LEN.[M]        RE         RESIDENCE TIME [D]
   1   1   3   LAMI.         0.03017        0.10000       10.00000        4.97793        2.60336
   2   2   3   LAMI.         0.06684        0.10000       10.00000       11.02873        1.17505
   3   3   4   TURB.         0.18458        0.10000       10.00000       30.45620        0.42551
   4   4   5   LAMI.        -0.04258        0.10000       10.00000        7.02582        1.84453
 

    BUDGET OF THE PIPE SYSTEM OF TIMESTEP    4 IN STRESS PERIOD    3
------------------------------------------------------------------------

  TOTAL SIMULATION TIME   240.000000000000      S
 
       CUMULATIVE VALUES (L**3)           RATES THIS TIME STEP (L**3/T)

            IN:                               IN:
     CONSTANT HEAD =   1.5311557          CONSTANT HEAD =   0.0000000    
      FHLQ BC (LQ) =   7.0000000           FHLQ BC (LQ) =  0.50000000E-01
   MATRIX EXCHANGE =   63.468844        MATRIX EXCHANGE =  0.25000000    
     PIPE RECHARGE =   48.000000          PIPE RECHARGE =  0.20000000    
           WELL BC =   0.0000000                WELL BC =   0.0000000    
       PFP STORAGE =   0.0000000            PFP STORAGE =   0.0000000    

     CUMULATIVE IN =   120.00000               TOTAL IN =  0.50000000    

           OUT:                               OUT:
     CONSTANT HEAD =   0.0000000          CONSTANT HEAD =   0.0000000    
      FHLQ BC (LQ) =   0.0000000           FHLQ BC (LQ) =   0.0000000    
   MATRIX EXCHANGE =   0.0000000        MATRIX EXCHANGE =   0.0000000    
     PIPE RECHARGE =   0.0000000          PIPE RECHARGE =   0.0000000    
           WELL BC =   120.00000                WELL BC =  0.50000000    
       PFP STORAGE =   0.0000000            PFP STORAGE =   0.0000000    

    CUMULATIVE OUT =   120.00000              TOTAL OUT =  0.50000000    

          IN - OUT = -0.11752178E-07           IN - OUT =  0.12501111E-12
     PERCENT ERROR =  0.00                PERCENT ERROR =  0.00


 
 ------------------------NODE WATER BUDGET-----------------------
  STRESS PERIOD           3  TIME STEP           4
 TOTAL SIMULATION TIME   240.000000000000     
 
 FLOW TO THE NODE IN M^3/D
 
 NODE   FIXED HEAD     RECHARGE        QWELL  MATRIX EXCH      STORAGE      TUBE_IN     TUBE_OUT         CADS     FHLQ(LQ)       CAUCHY   CAUCHY(LQ)          QLH     IN - OUT
   1     0.0000       0.0000       0.0000      0.30169E-01   0.0000       0.0000     -0.30169E-01   0.0000       0.0000       0.0000       0.0000       0.0000     -0.43432E-09
   2     0.0000       0.0000       0.0000      0.16840E-01   0.0000       0.0000     -0.66840E-01   0.0000      0.50000E-01   0.0000       0.0000       0.0000     -0.91444E-10
   3     0.0000       0.0000       0.0000      0.87571E-01   0.0000      0.97008E-01 -0.18458       0.0000       0.0000       0.0000       0.0000       0.0000      0.22603E-08
   4     0.0000      0.20000     -0.50000      0.72840E-01   0.0000      0.22716       0.0000       0.0000       0.0000       0.0000       0.0000       0.0000     -0.20774E-08
   5     0.0000       0.0000       0.0000      0.42580E-01   0.0000       0.0000     -0.42580E-01   0.0000       0.0000       0.0000       0.0000       0.0000      0.34298E-09
 
 SOLVING FOR HEAD 
MODFLOW ITER.#  NEWTON-RAPHSON ITER.#   MAXIMUM NODE HEAD CHANGE
         1                   1                  0.0000000000
         1                   2                  0.0000000000
         1                   3                  0.0000000000
     1 CALLS TO PCG ROUTINE FOR TIME STEP   5 IN STRESS PERIOD    3
     1 TOTAL ITERATIONS

 MAXIMUM HEAD CHANGE FOR EACH ITERATION (1 INDICATES THE FIRST INNER ITERATION):

    HEAD CHANGE    HEAD CHANGE    HEAD CHANGE    HEAD CHANGE    HEAD CHANGE 
   LAYER,ROW,COL  LAYER,ROW,COL  LAYER,ROW,COL  LAYER,ROW,COL  LAYER,ROW,COL
 ---------------------------------------------------------------------------
  1 -0.3403E-09
   (  2,  1,  4)

 MAXIMUM RESIDUAL FOR EACH ITERATION (1 INDICATES THE FIRST INNER ITERATION):

    RESIDUAL       RESIDUAL       RESIDUAL       RESIDUAL       RESIDUAL    
   LAYER,ROW,COL  LAYER,ROW,COL  LAYER,ROW,COL  LAYER,ROW,COL  LAYER,ROW,COL
 ---------------------------------------------------------------------------
  1 -0.3430E-06
   (  3,  3,  2)


MODFLOW ITER.#  NEWTON-RAPHSON ITER.#   MAXIMUM NODE HEAD CHANGE
         1                   1                  0.0000000002
         1                   2                  0.0000000000
         1                   3                  0.0000000000

 NO OUTPUT CONTROL FOR STRESS PERIOD    3   TIME STEP   5
 
 
 CFPM1 CRITERION OF CONVERGENCE:     0.1000000E-05
 CFPM1 MAXIMUM NUMBER OF ITERATIONS:   100
 
 
 CFPM1 RESULTS +++++++++++++++++++++++++++++++++++++++++++++++++++++++
 
 STRESS PERIOD/TIME STEP           3           5
 
NUMBER OF NEWTON RHAPSON ITERATIONS:     3
 
 ------- RESULTS OF FLOW CALCULATION -------
 
NODE# NODE HEAD[M] MATRIX HEAD [M] EXCHANGE [M^3/D]    CADSFLOW            PFPSFLOW         DIRECT RECHARGE        QWELL         FHLQ            CAUCHY         CAUCHY LQ               QLH              QFIX
    1  19.99979      20.00017       -0.3016868E-01       0.000000           0.000000           0.000000        0.000000         0.000000         0.000000         0.000000         0.000000         0.000000    
    2  19.99979      20.00000       -0.1683955E-01       0.000000           0.000000           0.000000        0.000000        0.5000000E-01     0.000000         0.000000         0.000000         0.000000    
    3  19.99979      20.00016       -0.8757137E-01       0.000000           0.000000           0.000000        0.000000         0.000000         0.000000         0.000000         0.000000         0.000000    
    4  19.99979      20.00025       -0.7284045E-01       0.000000           0.000000          0.2000000       -.5000000         0.000000         0.000000         0.000000         0.000000         0.000000    
    5  19.99979      20.00033       -0.4257994E-01       0.000000           0.000000           0.000000        0.000000         0.000000         0.000000         0.000000         0.000000         0.000000    
 
TUBE  B  E  FLOW          Q [M^3/D]       DIAM.[M]        LEN.[M]        RE         RESIDENCE TIME [D]
   1   1   3   LAMI.         0.03017        0.10000       10.00000        4.97793        2.60336
   2   2   3   LAMI.         0.06684        0.10000       10.00000       11.02873        1.17505
   3   3   4   TURB.         0.18458        0.10000       10.00000       30.45620        0.42551
   4   4   5   LAMI.        -0.04258        0.10000       10.00000        7.02582        1.84453
 

    BUDGET OF THE PIPE SYSTEM OF TIMESTEP    5 IN STRESS PERIOD    3
------------------------------------------------------------------------

  TOTAL SIMULATION TIME   250.000000000000      S
 
       CUMULATIVE VALUES (L**3)           RATES THIS TIME STEP (L**3/T)

            IN:                               IN:
     CONSTANT HEAD =   1.5311557          CONSTANT HEAD =   0.0000000    
      FHLQ BC (LQ) =   7.5000000           FHLQ BC (LQ) =  0.50000000E-01
   MATRIX EXCHANGE =   65.968844        MATRIX EXCHANGE =  0.25000000    
     PIPE RECHARGE =   50.000000          PIPE RECHARGE =  0.20000000    
           WELL BC =   0.0000000                WELL BC =   0.0000000    
       PFP STORAGE =   0.0000000            PFP STORAGE =   0.0000000    

     CUMULATIVE IN =   125.00000               TOTAL IN =  0.50000000    

           OUT:                               OUT:
     CONSTANT HEAD =   0.0000000          CONSTANT HEAD =   0.0000000    
      FHLQ BC (LQ) =   0.0000000           FHLQ BC (LQ) =   0.0000000    
   MATRIX EXCHANGE =   0.0000000        MATRIX EXCHANGE =   0.0000000    
     PIPE RECHARGE =   0.0000000          PIPE RECHARGE =   0.0000000    
           WELL BC =   125.00000                WELL BC =  0.50000000    
       PFP STORAGE =   0.0000000            PFP STORAGE =   0.0000000    

    CUMULATIVE OUT =   125.00000              TOTAL OUT =  0.50000000    

          IN - OUT = -0.11748128E-07           IN - OUT =  0.40406567E-12
     PERCENT ERROR =  0.00                PERCENT ERROR =  0.00


 
 ------------------------NODE WATER BUDGET-----------------------
  STRESS PERIOD           3  TIME STEP           5
 TOTAL SIMULATION TIME   250.000000000000     
 
 FLOW TO THE NODE IN M^3/D
 
 NODE   FIXED HEAD     RECHARGE        QWELL  MATRIX EXCH      STORAGE      TUBE_IN     TUBE_OUT         CADS     FHLQ(LQ)       CAUCHY   CAUCHY(LQ)          QLH     IN - OUT
   1     0.0000       0.0000       0.0000      0.30169E-01   0.0000       0.0000     -0.30169E-01   0.0000       0.0000       0.0000       0.0000       0.0000     -0.16283E-09
   2     0.0000       0.0000       0.0000      0.16840E-01   0.0000       0.0000     -0.66840E-01   0.0000      0.50000E-01   0.0000       0.0000       0.0000     -0.17763E-09
   3     0.0000       0.0000       0.0000      0.87571E-01   0.0000      0.97008E-01 -0.18458       0.0000       0.0000       0.0000       0.0000       0.0000     -0.61889E-09
   4     0.0000      0.20000     -0.50000      0.72840E-01   0.0000      0.22716       0.0000       0.0000       0.0000       0.0000       0.0000       0.0000      0.13802E-08
   5     0.0000       0.0000       0.0000      0.42580E-01   0.0000       0.0000     -0.42580E-01   0.0000       0.0000       0.0000       0.0000       0.0000     -0.42045E-09
 
 SOLVING FOR HEAD 
MODFLOW ITER.#  NEWTON-RAPHSON ITER.#   MAXIMUM NODE HEAD CHANGE
         1                   1                  0.0000000000
         1                   2                  0.0000000000
         1                   3                  0.0000000000
     1 CALLS TO PCG ROUTINE FOR TIME STEP   6 IN STRESS PERIOD    3
     1 TOTAL ITERATIONS
MODFLOW ITER.#  NEWTON-RAPHSON ITER.#   MAXIMUM NODE HEAD CHANGE
         1                   1                  0.0000000001
         1                   2                  0.0000000000
         1                   3                  0.0000000000

 NO OUTPUT CONTROL FOR STRESS PERIOD    3   TIME STEP   6
 
 
 CFPM1 CRITERION OF CONVERGENCE:     0.1000000E-05
 CFPM1 MAXIMUM NUMBER OF ITERATIONS:   100
 
 
 CFPM1 RESULTS +++++++++++++++++++++++++++++++++++++++++++++++++++++++
 
 STRESS PERIOD/TIME STEP           3           6
 
NUMBER OF NEWTON RHAPSON ITERATIONS:     3
 
 ------- RESULTS OF FLOW CALCULATION -------
 
NODE# NODE HEAD[M] MATRIX HEAD [M] EXCHANGE [M^3/D]    CADSFLOW            PFPSFLOW         DIRECT RECHARGE        QWELL         FHLQ            CAUCHY         CAUCHY LQ               QLH              QFIX
    1  19.99979      20.00017       -0.3016868E-01       0.000000           0.000000           0.000000        0.000000         0.000000         0.000000         0.000000         0.000000         0.000000    
    2  19.99979      20.00000       -0.1683954E-01       0.000000           0.000000           0.000000        0.000000        0.5000000E-01     0.000000         0.000000         0.000000         0.000000    
    3  19.99979      20.00016       -0.8757137E-01       0.000000           0.000000           0.000000        0.000000         0.000000         0.000000         0.000000         0.000000         0.000000    
    4  19.99979      20.00025       -0.7284045E-01       0.000000           0.000000          0.2000000       -.5000000         0.000000         0.000000         0.000000         0.000000         0.000000    
    5  19.99979      20.00033       -0.4257995E-01       0.000000           0.000000           0.000000        0.000000         0.000000         0.000000         0.000000         0.000000         0.000000    
 
TUBE  B  E  FLOW          Q [M^3/D]       DIAM.[M]        LEN.[M]        RE         RESIDENCE TIME [D]
   1   1   3   LAMI.         0.03017        0.10000       10.00000        4.97793        2.60336
   2   2   3   LAMI.         0.06684        0.10000       10.00000       11.02873        1.17505
   3   3   4   TURB.         0.18458        0.10000       10.00000       30.45620        0.42551
   4   4   5   LAMI.        -0.04258        0.10000       10.00000        7.02582        1.84453
 

    BUDGET OF THE PIPE SYSTEM OF TIMESTEP    6 IN STRESS PERIOD    3
------------------------------------------------------------------------

  TOTAL SIMULATION TIME   260.000000000000      S
 
       CUMULATIVE VALUES (L**3)           RATES THIS TIME STEP (L**3/T)

            IN:                               IN:
     CONSTANT HEAD =   1.5311557          CONSTANT HEAD =   0.0000000    
      FHLQ BC (LQ) =   8.0000000           FHLQ BC (LQ) =  0.50000000E-01
   MATRIX EXCHANGE =   68.468844        MATRIX EXCHANGE =  0.25000000    
     PIPE RECHARGE =   52.000000          PIPE RECHARGE =  0.20000000    
           WELL BC =   0.0000000                WELL BC =   0.0000000    
       PFP STORAGE =   0.0000000            PFP STORAGE =   0.0000000    

     CUMULATIVE IN =   130.00000               TOTAL IN =  0.50000000    

           OUT:                               OUT:
     CONSTANT HEAD =   0.0000000          CONSTANT HEAD =   0.0000000    
      FHLQ BC (LQ) =   0.0000000           FHLQ BC (LQ) =   0.0000000    
   MATRIX EXCHANGE =   0.0000000        MATRIX EXCHANGE =   0.0000000    
     PIPE RECHARGE =   0.0000000          PIPE RECHARGE =   0.0000000    
           WELL BC =   130.00000                WELL BC =  0.50000000    
       PFP STORAGE =   0.0000000            PFP STORAGE =   0.0000000    

    CUMULATIVE OUT =   130.00000              TOTAL OUT =  0.50000000    

          IN - OUT = -0.11749648E-07           IN - OUT = -0.15404344E-12
     PERCENT ERROR =  0.00                PERCENT ERROR =  0.00


 
 ------------------------NODE WATER BUDGET-----------------------
  STRESS PERIOD           3  TIME STEP           6
 TOTAL SIMULATION TIME   260.000000000000     
 
 FLOW TO THE NODE IN M^3/D
 
 NODE   FIXED HEAD     RECHARGE        QWELL  MATRIX EXCH      STORAGE      TUBE_IN     TUBE_OUT         CADS     FHLQ(LQ)       CAUCHY   CAUCHY(LQ)          QLH     IN - OUT
   1     0.0000       0.0000       0.0000      0.30169E-01   0.0000       0.0000     -0.30169E-01   0.0000       0.0000       0.0000       0.0000       0.0000     -0.16757E-09
   2     0.0000       0.0000       0.0000      0.16840E-01   0.0000       0.0000     -0.66840E-01   0.0000      0.50000E-01   0.0000       0.0000       0.0000     -0.23085E-09
   3     0.0000       0.0000       0.0000      0.87571E-01   0.0000      0.97008E-01 -0.18458       0.0000       0.0000       0.0000       0.0000       0.0000      0.19552E-08
   4     0.0000      0.20000     -0.50000      0.72840E-01   0.0000      0.22716       0.0000       0.0000       0.0000       0.0000       0.0000       0.0000     -0.22450E-08
   5     0.0000       0.0000       0.0000      0.42580E-01   0.0000       0.0000     -0.42580E-01   0.0000       0.0000       0.0000       0.0000       0.0000      0.68809E-09
 
 SOLVING FOR HEAD 
MODFLOW ITER.#  NEWTON-RAPHSON ITER.#   MAXIMUM NODE HEAD CHANGE
         1                   1                  0.0000000000
         1                   2                  0.0000000000
         1                   3                  0.0000000000
     1 CALLS TO PCG ROUTINE FOR TIME STEP   7 IN STRESS PERIOD    3
     1 TOTAL ITERATIONS
MODFLOW ITER.#  NEWTON-RAPHSON ITER.#   MAXIMUM NODE HEAD CHANGE
         1                   1                  0.0000000001
         1                   2                  0.0000000000
         1                   3                  0.0000000000

 NO OUTPUT CONTROL FOR STRESS PERIOD    3   TIME STEP   7
 
 
 CFPM1 CRITERION OF CONVERGENCE:     0.1000000E-05
 CFPM1 MAXIMUM NUMBER OF ITERATIONS:   100
 
 
 CFPM1 RESULTS +++++++++++++++++++++++++++++++++++++++++++++++++++++++
 
 STRESS PERIOD/TIME STEP           3           7
 
NUMBER OF NEWTON RHAPSON ITERATIONS:     3
 
 ------- RESULTS OF FLOW CALCULATION -------
 
NODE# NODE HEAD[M] MATRIX HEAD [M] EXCHANGE [M^3/D]    CADSFLOW            PFPSFLOW         DIRECT RECHARGE        QWELL         FHLQ            CAUCHY         CAUCHY LQ               QLH              QFIX
    1  19.99979      20.00017       -0.3016868E-01       0.000000           0.000000           0.000000        0.000000         0.000000         0.000000         0.000000         0.000000         0.000000    
    2  19.99979      20.00000       -0.1683954E-01       0.000000           0.000000           0.000000        0.000000        0.5000000E-01     0.000000         0.000000         0.000000         0.000000    
    3  19.99979      20.00016       -0.8757137E-01       0.000000           0.000000           0.000000        0.000000         0.000000         0.000000         0.000000         0.000000         0.000000    
    4  19.99979      20.00025       -0.7284046E-01       0.000000           0.000000          0.2000000       -.5000000         0.000000         0.000000         0.000000         0.000000         0.000000    
    5  19.99979      20.00033       -0.4257995E-01       0.000000           0.000000           0.000000        0.000000         0.000000         0.000000         0.000000         0.000000         0.000000    
 
TUBE  B  E  FLOW          Q [M^3/D]       DIAM.[M]        LEN.[M]        RE         RESIDENCE TIME [D]
   1   1   3   LAMI.         0.03017        0.10000       10.00000        4.97793        2.60336
   2   2   3   LAMI.         0.06684        0.10000       10.00000       11.02873        1.17505
   3   3   4   TURB.         0.18458        0.10000       10.00000       30.45620        0.42551
   4   4   5   LAMI.        -0.04258        0.10000       10.00000        7.02582        1.84453
 

    BUDGET OF THE PIPE SYSTEM OF TIMESTEP    7 IN STRESS PERIOD    3
------------------------------------------------------------------------

  TOTAL SIMULATION TIME   270.000000000000      S
 
       CUMULATIVE VALUES (L**3)           RATES THIS TIME STEP (L**3/T)

            IN:                               IN:
     CONSTANT HEAD =   1.5311557          CONSTANT HEAD =   0.0000000    
      FHLQ BC (LQ) =   8.5000000           FHLQ BC (LQ) =  0.50000000E-01
   MATRIX EXCHANGE =   70.968844        MATRIX EXCHANGE =  0.25000000    
     PIPE RECHARGE =   54.000000          PIPE RECHARGE =  0.20000000    
           WELL BC =   0.0000000                WELL BC =   0.0000000    
       PFP STORAGE =   0.0000000            PFP STORAGE =   0.0000000    

     CUMULATIVE IN =   135.00000               TOTAL IN =  0.50000000    

           OUT:                               OUT:
     CONSTANT HEAD =   0.0000000          CONSTANT HEAD =   0.0000000    
      FHLQ BC (LQ) =   0.0000000           FHLQ BC (LQ) =   0.0000000    
   MATRIX EXCHANGE =   0.0000000        MATRIX EXCHANGE =   0.0000000    
     PIPE RECHARGE =   0.0000000          PIPE RECHARGE =   0.0000000    
           WELL BC =   135.00000                WELL BC =  0.50000000    
       PFP STORAGE =   0.0000000            PFP STORAGE =   0.0000000    

    CUMULATIVE OUT =   135.00000              TOTAL OUT =  0.50000000    

          IN - OUT = -0.11748384E-07           IN - OUT =  0.12501111E-12
     PERCENT ERROR =  0.00                PERCENT ERROR =  0.00


 
 ------------------------NODE WATER BUDGET-----------------------
  STRESS PERIOD           3  TIME STEP           7
 TOTAL SIMULATION TIME   270.000000000000     
 
 FLOW TO THE NODE IN M^3/D
 
 NODE   FIXED HEAD     RECHARGE        QWELL  MATRIX EXCH      STORAGE      TUBE_IN     TUBE_OUT         CADS     FHLQ(LQ)       CAUCHY   CAUCHY(LQ)          QLH     IN - OUT
   1     0.0000       0.0000       0.0000      0.30169E-01   0.0000       0.0000     -0.30169E-01   0.0000       0.0000       0.0000       0.0000       0.0000     -0.48703E-10
   2     0.0000       0.0000       0.0000      0.16840E-01   0.0000       0.0000     -0.66840E-01   0.0000      0.50000E-01   0.0000       0.0000       0.0000      0.17957E-09
   3     0.0000       0.0000       0.0000      0.87571E-01   0.0000      0.97008E-01 -0.18458       0.0000       0.0000       0.0000       0.0000       0.0000     -0.13410E-08
   4     0.0000      0.20000     -0.50000      0.72840E-01   0.0000      0.22716       0.0000       0.0000       0.0000       0.0000       0.0000       0.0000      0.10724E-08
   5     0.0000       0.0000       0.0000      0.42580E-01   0.0000       0.0000     -0.42580E-01   0.0000       0.0000       0.0000       0.0000       0.0000      0.13784E-09
 
 SOLVING FOR HEAD 
MODFLOW ITER.#  NEWTON-RAPHSON ITER.#   MAXIMUM NODE HEAD CHANGE
         1                   1                  0.0000000000
         1                   2                  0.0000000000
         1                   3                  0.0000000000
     1 CALLS TO PCG ROUTINE FOR TIME STEP   8 IN STRESS PERIOD    3
     1 TOTAL ITERATIONS
MODFLOW ITER.#  NEWTON-RAPHSON ITER.#   MAXIMUM NODE HEAD CHANGE
         1                   1                  0.0000000000
         1                   2                  0.0000000000
         1                   3                  0.0000000000

 NO OUTPUT CONTROL FOR STRESS PERIOD    3   TIME STEP   8
 
 
 CFPM1 CRITERION OF CONVERGENCE:     0.1000000E-05
 CFPM1 MAXIMUM NUMBER OF ITERATIONS:   100
 
 
 CFPM1 RESULTS +++++++++++++++++++++++++++++++++++++++++++++++++++++++
 
 STRESS PERIOD/TIME STEP           3           8
 
NUMBER OF NEWTON RHAPSON ITERATIONS:     3
 
 ------- RESULTS OF FLOW CALCULATION -------
 
NODE# NODE HEAD[M] MATRIX HEAD [M] EXCHANGE [M^3/D]    CADSFLOW            PFPSFLOW         DIRECT RECHARGE        QWELL         FHLQ            CAUCHY         CAUCHY LQ               QLH              QFIX
    1  19.99979      20.00017       -0.3016868E-01       0.000000           0.000000           0.000000        0.000000         0.000000         0.000000         0.000000         0.000000         0.000000    
    2  19.99979      20.00000       -0.1683954E-01       0.000000           0.000000           0.000000        0.000000        0.5000000E-01     0.000000         0.000000         0.000000         0.000000    
    3  19.99979      20.00016       -0.8757137E-01       0.000000           0.000000           0.000000        0.000000         0.000000         0.000000         0.000000         0.000000         0.000000    
    4  19.99979      20.00025       -0.7284046E-01       0.000000           0.000000          0.2000000       -.5000000         0.000000         0.000000         0.000000         0.000000         0.000000    
    5  19.99979      20.00033       -0.4257995E-01       0.000000           0.000000           0.000000        0.000000         0.000000         0.000000         0.000000         0.000000         0.000000    
 
TUBE  B  E  FLOW          Q [M^3/D]       DIAM.[M]        LEN.[M]        RE         RESIDENCE TIME [D]
   1   1   3   LAMI.         0.03017        0.10000       10.00000        4.97793        2.60336
   2   2   3   LAMI.         0.06684        0.10000       10.00000       11.02873        1.17505
   3   3   4   TURB.         0.18458        0.10000       10.00000       30.45620        0.42551
   4   4   5   LAMI.        -0.04258        0.10000       10.00000        7.02582        1.84453
 

    BUDGET OF THE PIPE SYSTEM OF TIMESTEP    8 IN STRESS PERIOD    3
------------------------------------------------------------------------

  TOTAL SIMULATION TIME   280.000000000000      S
 
       CUMULATIVE VALUES (L**3)           RATES THIS TIME STEP (L**3/T)

            IN:                               IN:
     CONSTANT HEAD =   1.5311557          CONSTANT HEAD =   0.0000000    
      FHLQ BC (LQ) =   9.0000000           FHLQ BC (LQ) =  0.50000000E-01
   MATRIX EXCHANGE =   73.468844        MATRIX EXCHANGE =  0.25000000    
     PIPE RECHARGE =   56.000000          PIPE RECHARGE =  0.20000000    
           WELL BC =   0.0000000                WELL BC =   0.0000000    
       PFP STORAGE =   0.0000000            PFP STORAGE =   0.0000000    

     CUMULATIVE IN =   140.00000               TOTAL IN =  0.50000000    

           OUT:                               OUT:
     CONSTANT HEAD =   0.0000000          CONSTANT HEAD =   0.0000000    
      FHLQ BC (LQ) =   0.0000000           FHLQ BC (LQ) =   0.0000000    
   MATRIX EXCHANGE =   0.0000000        MATRIX EXCHANGE =   0.0000000    
     PIPE RECHARGE =   0.0000000          PIPE RECHARGE =   0.0000000    
           WELL BC =   140.00000                WELL BC =  0.50000000    
       PFP STORAGE =   0.0000000            PFP STORAGE =   0.0000000    

    CUMULATIVE OUT =   140.00000              TOTAL OUT =  0.50000000    

          IN - OUT = -0.11747133E-07           IN - OUT =  0.12501111E-12
     PERCENT ERROR =  0.00                PERCENT ERROR =  0.00


 
 ------------------------NODE WATER BUDGET-----------------------
  STRESS PERIOD           3  TIME STEP           8
 TOTAL SIMULATION TIME   280.000000000000     
 
 FLOW TO THE NODE IN M^3/D
 
 NODE   FIXED HEAD     RECHARGE        QWELL  MATRIX EXCH      STORAGE      TUBE_IN     TUBE_OUT         CADS     FHLQ(LQ)       CAUCHY   CAUCHY(LQ)          QLH     IN - OUT
   1     0.0000       0.0000       0.0000      0.30169E-01   0.0000       0.0000     -0.30169E-01   0.0000       0.0000       0.0000       0.0000       0.0000     -0.11651E-09
   2     0.0000       0.0000       0.0000      0.16840E-01   0.0000       0.0000     -0.66840E-01   0.0000      0.50000E-01   0.0000       0.0000       0.0000     -0.48394E-09
   3     0.0000       0.0000       0.0000      0.87571E-01   0.0000      0.97008E-01 -0.18458       0.0000       0.0000       0.0000       0.0000       0.0000      0.87595E-09
   4     0.0000      0.20000     -0.50000      0.72840E-01   0.0000      0.22716       0.0000       0.0000       0.0000       0.0000       0.0000       0.0000     -0.47207E-09
   5     0.0000       0.0000       0.0000      0.42580E-01   0.0000       0.0000     -0.42580E-01   0.0000       0.0000       0.0000       0.0000       0.0000      0.19670E-09
 
 SOLVING FOR HEAD 
MODFLOW ITER.#  NEWTON-RAPHSON ITER.#   MAXIMUM NODE HEAD CHANGE
         1                   1                  0.0000000000
         1                   2                  0.0000000000
         1                   3                  0.0000000000
     1 CALLS TO PCG ROUTINE FOR TIME STEP   9 IN STRESS PERIOD    3
     1 TOTAL ITERATIONS
MODFLOW ITER.#  NEWTON-RAPHSON ITER.#   MAXIMUM NODE HEAD CHANGE
         1                   1                  0.0000000000
         1                   2                  0.0000000000
         1                   3                  0.0000000000

 NO OUTPUT CONTROL FOR STRESS PERIOD    3   TIME STEP   9
 
 
 CFPM1 CRITERION OF CONVERGENCE:     0.1000000E-05
 CFPM1 MAXIMUM NUMBER OF ITERATIONS:   100
 
 
 CFPM1 RESULTS +++++++++++++++++++++++++++++++++++++++++++++++++++++++
 
 STRESS PERIOD/TIME STEP           3           9
 
NUMBER OF NEWTON RHAPSON ITERATIONS:     3
 
 ------- RESULTS OF FLOW CALCULATION -------
 
NODE# NODE HEAD[M] MATRIX HEAD [M] EXCHANGE [M^3/D]    CADSFLOW            PFPSFLOW         DIRECT RECHARGE        QWELL         FHLQ            CAUCHY         CAUCHY LQ               QLH              QFIX
    1  19.99979      20.00017       -0.3016868E-01       0.000000           0.000000           0.000000        0.000000         0.000000         0.000000         0.000000         0.000000         0.000000    
    2  19.99979      20.00000       -0.1683953E-01       0.000000           0.000000           0.000000        0.000000        0.5000000E-01     0.000000         0.000000         0.000000         0.000000    
    3  19.99979      20.00016       -0.8757137E-01       0.000000           0.000000           0.000000        0.000000         0.000000         0.000000         0.000000         0.000000         0.000000    
    4  19.99979      20.00025       -0.7284046E-01       0.000000           0.000000          0.2000000       -.5000000         0.000000         0.000000         0.000000         0.000000         0.000000    
    5  19.99979      20.00033       -0.4257995E-01       0.000000           0.000000           0.000000        0.000000         0.000000         0.000000         0.000000         0.000000         0.000000    
 
TUBE  B  E  FLOW          Q [M^3/D]       DIAM.[M]        LEN.[M]        RE         RESIDENCE TIME [D]
   1   1   3   LAMI.         0.03017        0.10000       10.00000        4.97793        2.60336
   2   2   3   LAMI.         0.06684        0.10000       10.00000       11.02873        1.17505
   3   3   4   TURB.         0.18458        0.10000       10.00000       30.45620        0.42551
   4   4   5   LAMI.        -0.04258        0.10000       10.00000        7.02582        1.84453
 

    BUDGET OF THE PIPE SYSTEM OF TIMESTEP    9 IN STRESS PERIOD    3
------------------------------------------------------------------------

  TOTAL SIMULATION TIME   290.000000000000      S
 
       CUMULATIVE VALUES (L**3)           RATES THIS TIME STEP (L**3/T)

            IN:                               IN:
     CONSTANT HEAD =   1.5311557          CONSTANT HEAD =   0.0000000    
      FHLQ BC (LQ) =   9.5000000           FHLQ BC (LQ) =  0.50000000E-01
   MATRIX EXCHANGE =   75.968844        MATRIX EXCHANGE =  0.25000000    
     PIPE RECHARGE =   58.000000          PIPE RECHARGE =  0.20000000    
           WELL BC =   0.0000000                WELL BC =   0.0000000    
       PFP STORAGE =   0.0000000            PFP STORAGE =   0.0000000    

     CUMULATIVE IN =   145.00000               TOTAL IN =  0.50000000    

           OUT:                               OUT:
     CONSTANT HEAD =   0.0000000          CONSTANT HEAD =   0.0000000    
      FHLQ BC (LQ) =   0.0000000           FHLQ BC (LQ) =   0.0000000    
   MATRIX EXCHANGE =   0.0000000        MATRIX EXCHANGE =   0.0000000    
     PIPE RECHARGE =   0.0000000          PIPE RECHARGE =   0.0000000    
           WELL BC =   145.00000                WELL BC =  0.50000000    
       PFP STORAGE =   0.0000000            PFP STORAGE =   0.0000000    

    CUMULATIVE OUT =   145.00000              TOTAL OUT =  0.50000000    

          IN - OUT = -0.11740298E-07           IN - OUT =  0.68300920E-12
     PERCENT ERROR =  0.00                PERCENT ERROR =  0.00


 
 ------------------------NODE WATER BUDGET-----------------------
  STRESS PERIOD           3  TIME STEP           9
 TOTAL SIMULATION TIME   290.000000000000     
 
 FLOW TO THE NODE IN M^3/D
 
 NODE   FIXED HEAD     RECHARGE        QWELL  MATRIX EXCH      STORAGE      TUBE_IN     TUBE_OUT         CADS     FHLQ(LQ)       CAUCHY   CAUCHY(LQ)          QLH     IN - OUT
   1     0.0000       0.0000       0.0000      0.30169E-01   0.0000       0.0000     -0.30169E-01   0.0000       0.0000       0.0000       0.0000       0.0000     -0.67677E-10
   2     0.0000       0.0000       0.0000      0.16840E-01   0.0000       0.0000     -0.66840E-01   0.0000      0.50000E-01   0.0000       0.0000       0.0000     -0.18229E-09
   3     0.0000       0.0000       0.0000      0.87571E-01   0.0000      0.97008E-01 -0.18458       0.0000       0.0000       0.0000       0.0000       0.0000      0.13542E-08
   4     0.0000      0.20000     -0.50000      0.72840E-01   0.0000      0.22716       0.0000       0.0000       0.0000       0.0000       0.0000       0.0000     -0.10422E-08
   5     0.0000       0.0000       0.0000      0.42580E-01   0.0000       0.0000     -0.42580E-01   0.0000       0.0000       0.0000       0.0000       0.0000     -0.61407E-10
 
 SOLVING FOR HEAD 
MODFLOW ITER.#  NEWTON-RAPHSON ITER.#   MAXIMUM NODE HEAD CHANGE
         1                   1                  0.0000000000
         1                   2                  0.0000000000
         1                   3                  0.0000000000
     1 CALLS TO PCG ROUTINE FOR TIME STEP  10 IN STRESS PERIOD    3
     1 TOTAL ITERATIONS

 MAXIMUM HEAD CHANGE FOR EACH ITERATION (1 INDICATES THE FIRST INNER ITERATION):

    HEAD CHANGE    HEAD CHANGE    HEAD CHANGE    HEAD CHANGE    HEAD CHANGE 
   LAYER,ROW,COL  LAYER,ROW,COL  LAYER,ROW,COL  LAYER,ROW,COL  LAYER,ROW,COL
 ---------------------------------------------------------------------------
  1  0.7801E-10
   (  3,  1,  4)

 MAXIMUM RESIDUAL FOR EACH ITERATION (1 INDICATES THE FIRST INNER ITERATION):

    RESIDUAL       RESIDUAL       RESIDUAL       RESIDUAL       RESIDUAL    
   LAYER,ROW,COL  LAYER,ROW,COL  LAYER,ROW,COL  LAYER,ROW,COL  LAYER,ROW,COL
 ---------------------------------------------------------------------------
  1 -0.5224E-07
   (  3,  2,  3)


MODFLOW ITER.#  NEWTON-RAPHSON ITER.#   MAXIMUM NODE HEAD CHANGE
         1                   1                  0.0000000000
         1                   2                  0.0000000000
         1                   3                  0.0000000000

 NO OUTPUT CONTROL FOR STRESS PERIOD    3   TIME STEP  10
 
 
 CFPM1 CRITERION OF CONVERGENCE:     0.1000000E-05
 CFPM1 MAXIMUM NUMBER OF ITERATIONS:   100
 
 
 CFPM1 RESULTS +++++++++++++++++++++++++++++++++++++++++++++++++++++++
 
 STRESS PERIOD/TIME STEP           3          10
 
NUMBER OF NEWTON RHAPSON ITERATIONS:     3
 
 ------- RESULTS OF FLOW CALCULATION -------
 
NODE# NODE HEAD[M] MATRIX HEAD [M] EXCHANGE [M^3/D]    CADSFLOW            PFPSFLOW         DIRECT RECHARGE        QWELL         FHLQ            CAUCHY         CAUCHY LQ               QLH              QFIX
    1  19.99979      20.00017       -0.3016868E-01       0.000000           0.000000           0.000000        0.000000         0.000000         0.000000         0.000000         0.000000         0.000000    
    2  19.99979      20.00000       -0.1683953E-01       0.000000           0.000000           0.000000        0.000000        0.5000000E-01     0.000000         0.000000         0.000000         0.000000    
    3  19.99979      20.00016       -0.8757137E-01       0.000000           0.000000           0.000000        0.000000         0.000000         0.000000         0.000000         0.000000         0.000000    
    4  19.99979      20.00025       -0.7284046E-01       0.000000           0.000000          0.2000000       -.5000000         0.000000         0.000000         0.000000         0.000000         0.000000    
    5  19.99979      20.00033       -0.4257995E-01       0.000000           0.000000           0.000000        0.000000         0.000000         0.000000         0.000000         0.000000         0.000000    
 
TUBE  B  E  FLOW          Q [M^3/D]       DIAM.[M]        LEN.[M]        RE         RESIDENCE TIME [D]
   1   1   3   LAMI.         0.03017        0.10000       10.00000        4.97793        2.60336
   2   2   3   LAMI.         0.06684        0.10000       10.00000       11.02873        1.17505
   3   3   4   TURB.         0.18458        0.10000       10.00000       30.45620        0.42551
   4   4   5   LAMI.        -0.04258        0.10000       10.00000        7.02582        1.84453
 

    BUDGET OF THE PIPE SYSTEM OF TIMESTEP   10 IN STRESS PERIOD    3
------------------------------------------------------------------------

  TOTAL SIMULATION TIME   300.000000000000      S
 
       CUMULATIVE VALUES (L**3)           RATES THIS TIME STEP (L**3/T)

            IN:                               IN:
     CONSTANT HEAD =   1.5311557          CONSTANT HEAD =   0.0000000    
      FHLQ BC (LQ) =   10.000000           FHLQ BC (LQ) =  0.50000000E-01
   MATRIX EXCHANGE =   78.468844        MATRIX EXCHANGE =  0.25000000    
     PIPE RECHARGE =   60.000000          PIPE RECHARGE =  0.20000000    
           WELL BC =   0.0000000                WELL BC =   0.0000000    
       PFP STORAGE =   0.0000000            PFP STORAGE =   0.0000000    

     CUMULATIVE IN =   150.00000               TOTAL IN =  0.50000000    

           OUT:                               OUT:
     CONSTANT HEAD =   0.0000000          CONSTANT HEAD =   0.0000000    
      FHLQ BC (LQ) =   0.0000000           FHLQ BC (LQ) =   0.0000000    
   MATRIX EXCHANGE =   0.0000000        MATRIX EXCHANGE =   0.0000000    
     PIPE RECHARGE =   0.0000000          PIPE RECHARGE =   0.0000000    
           WELL BC =   150.00000                WELL BC =  0.50000000    
       PFP STORAGE =   0.0000000            PFP STORAGE =   0.0000000    

    CUMULATIVE OUT =   150.00000              TOTAL OUT =  0.50000000    

          IN - OUT = -0.11747403E-07           IN - OUT = -0.71209705E-12
     PERCENT ERROR =  0.00                PERCENT ERROR =  0.00


 
 ------------------------NODE WATER BUDGET-----------------------
  STRESS PERIOD           3  TIME STEP          10
 TOTAL SIMULATION TIME   300.000000000000     
 
 FLOW TO THE NODE IN M^3/D
 
 NODE   FIXED HEAD     RECHARGE        QWELL  MATRIX EXCH      STORAGE      TUBE_IN     TUBE_OUT         CADS     FHLQ(LQ)       CAUCHY   CAUCHY(LQ)          QLH     IN - OUT
   1     0.0000       0.0000       0.0000      0.30169E-01   0.0000       0.0000     -0.30169E-01   0.0000       0.0000       0.0000       0.0000       0.0000     -0.10451E-09
   2     0.0000       0.0000       0.0000      0.16840E-01   0.0000       0.0000     -0.66840E-01   0.0000      0.50000E-01   0.0000       0.0000       0.0000      0.17024E-09
   3     0.0000       0.0000       0.0000      0.87571E-01   0.0000      0.97008E-01 -0.18458       0.0000       0.0000       0.0000       0.0000       0.0000      0.30411E-09
   4     0.0000      0.20000     -0.50000      0.72840E-01   0.0000      0.22716       0.0000       0.0000       0.0000       0.0000       0.0000       0.0000     -0.52687E-09
   5     0.0000       0.0000       0.0000      0.42580E-01   0.0000       0.0000     -0.42580E-01   0.0000       0.0000       0.0000       0.0000       0.0000      0.15632E-09
1
  VOLUMETRIC BUDGET FOR ENTIRE MODEL AT END OF TIME STEP 10 IN STRESS PERIOD   3
  ------------------------------------------------------------------------------

     CUMULATIVE VOLUMES      L**3       RATES FOR THIS TIME STEP      L**3/T
     ------------------                 ------------------------

           IN:                                      IN:
           ---                                      ---
             STORAGE =       2.1327E-05               STORAGE =           0.0000
       CONSTANT HEAD =           5.5137         CONSTANT HEAD =       1.6840E-02
            RECHARGE =         660.0000              RECHARGE =           2.2000
               PIPES =           0.0000                 PIPES =           0.0000

            TOTAL IN =         665.5137              TOTAL IN =           2.2168

          OUT:                                     OUT:
          ----                                     ----
             STORAGE =       3.9781E-05               STORAGE =       2.0061E-13
       CONSTANT HEAD =         587.0443         CONSTANT HEAD =           1.9668
            RECHARGE =           0.0000              RECHARGE =           0.0000
               PIPES =          78.4688                 PIPES =           0.2500

           TOTAL OUT =         665.5132             TOTAL OUT =           2.2168

            IN - OUT =       4.9070E-04              IN - OUT =       3.6333E-07

 PERCENT DISCREPANCY =           0.00     PERCENT DISCREPANCY =           0.00






          TIME SUMMARY AT END OF TIME STEP  10 IN STRESS PERIOD    3
                    SECONDS     MINUTES      HOURS       DAYS        YEARS
                    -----------------------------------------------------------
   TIME STEP LENGTH 8.64000E+05  14400.      240.00      10.000     2.73785E-02
 STRESS PERIOD TIME 8.64000E+06 1.44000E+05  2400.0      100.00     0.27379    
         TOTAL TIME 2.59200E+07 4.32000E+05  7200.0      300.00     0.82136    
1
1
                            STRESS PERIOD NO.    4, LENGTH =   100.0000    
                            -----------------------------------------------

                              NUMBER OF TIME STEPS =    10

                               MULTIPLIER FOR DELT =     1.000

                            INITIAL TIME STEP SIZE =   10.00000    



                           RECHARGE
 READING ON UNIT   19 WITH FORMAT: (4E15.6)            
 
 CFP1RCH1RP SUBROUTINE READING FROM UNIT           53
 READING INPUT USED TO PARTICIAN RECHARGE AND WELL DATA
 0.0    0.0    0.0    1.0    0.0   
 DATA FOR WELLS:
 0.0    0.0    0.0   -.50    0.0   
 
 SOLVING FOR HEAD 
MODFLOW ITER.#  NEWTON-RAPHSON ITER.#   MAXIMUM NODE HEAD CHANGE
         1                   1                  0.0001592181
         1                   2                  0.0000000038
         1                   3                  0.0000000000
MODFLOW ITER.#  NEWTON-RAPHSON ITER.#   MAXIMUM NODE HEAD CHANGE
         2                   1                  0.0001074282
    RESET NODE    2 FROM LQ TO FH WITH HEAD   20.0000    
    CHANGED    1 CONDUIT NODES DUE TO FHLQ IN STRESS PERIOD      4
         2                   2                  0.0000520451
    CHANGED    1 CONDUIT NODES DUE TO FHLQ IN STRESS PERIOD      4
         2                   3                  0.0000000002
MODFLOW ITER.#  NEWTON-RAPHSON ITER.#   MAXIMUM NODE HEAD CHANGE
         3                   1                  0.0000000112
         3                   2                  0.0000000000
         3                   3                  0.0000000000


     3 CALLS TO PCG ROUTINE FOR TIME STEP   1 IN STRESS PERIOD    4
    18 TOTAL ITERATIONS
MODFLOW ITER.#  NEWTON-RAPHSON ITER.#   MAXIMUM NODE HEAD CHANGE
         3                   1                  0.0000000000
         3                   2                  0.0000000000
         3                   3                  0.0000000000

 NO OUTPUT CONTROL FOR STRESS PERIOD    4   TIME STEP   1
 
 
 CFPM1 CRITERION OF CONVERGENCE:     0.1000000E-05
 CFPM1 MAXIMUM NUMBER OF ITERATIONS:   100
 
 
 CFPM1 RESULTS +++++++++++++++++++++++++++++++++++++++++++++++++++++++
 
 STRESS PERIOD/TIME STEP           4           1
 
NUMBER OF NEWTON RHAPSON ITERATIONS:     3
 
 ------- RESULTS OF FLOW CALCULATION -------
 
NODE# NODE HEAD[M] MATRIX HEAD [M] EXCHANGE [M^3/D]    CADSFLOW            PFPSFLOW         DIRECT RECHARGE        QWELL         FHLQ            CAUCHY         CAUCHY LQ               QLH              QFIX
    1  20.00000      20.00027       -0.2110269E-01       0.000000           0.000000           0.000000        0.000000         0.000000         0.000000         0.000000         0.000000         0.000000    
    2  20.00    FIX  20.00000           0.0000           0.000000           0.000000           0.000000        0.000000         0.000000         0.000000         0.000000         0.000000        0.1531158E-01
    3  20.00000      20.00026       -0.6030544E-01       0.000000           0.000000           0.000000        0.000000         0.000000         0.000000         0.000000         0.000000         0.000000    
    4  20.00000      20.00040       -0.6268508E-01       0.000000           0.000000          0.3000000       -.5000000         0.000000         0.000000         0.000000         0.000000         0.000000    
    5  20.00000      20.00052       -0.4059520E-01       0.000000           0.000000           0.000000        0.000000         0.000000         0.000000         0.000000         0.000000         0.000000    
 
TUBE  B  E  FLOW          Q [M^3/D]       DIAM.[M]        LEN.[M]        RE         RESIDENCE TIME [D]
   1   1   3   LAMI.         0.02110        0.10000       10.00000        3.48201        3.72179
   2   2   3   LAMI.         0.01531        0.10000       10.00000        2.52646        5.12944
   3   3   4   TURB.         0.09672        0.10000       10.00000       15.95905        0.81204
   4   4   5   LAMI.        -0.04060        0.10000       10.00000        6.69833        1.93471
 

    BUDGET OF THE PIPE SYSTEM OF TIMESTEP    1 IN STRESS PERIOD    4
------------------------------------------------------------------------

  TOTAL SIMULATION TIME   310.000000000000      S
 
       CUMULATIVE VALUES (L**3)           RATES THIS TIME STEP (L**3/T)

            IN:                               IN:
     CONSTANT HEAD =   1.6842716          CONSTANT HEAD =  0.15311582E-01
      FHLQ BC (LQ) =   10.000000           FHLQ BC (LQ) =   0.0000000    
   MATRIX EXCHANGE =   80.315728        MATRIX EXCHANGE =  0.18468842    
     PIPE RECHARGE =   63.000000          PIPE RECHARGE =  0.30000000    
           WELL BC =   0.0000000                WELL BC =   0.0000000    
       PFP STORAGE =   0.0000000            PFP STORAGE =   0.0000000    

     CUMULATIVE IN =   155.00000               TOTAL IN =  0.50000000    

           OUT:                               OUT:
     CONSTANT HEAD =   0.0000000          CONSTANT HEAD =   0.0000000    
      FHLQ BC (LQ) =   0.0000000           FHLQ BC (LQ) =   0.0000000    
   MATRIX EXCHANGE =   0.0000000        MATRIX EXCHANGE =   0.0000000    
     PIPE RECHARGE =   0.0000000          PIPE RECHARGE =   0.0000000    
           WELL BC =   155.00000                WELL BC =  0.50000000    
       PFP STORAGE =   0.0000000            PFP STORAGE =   0.0000000    

    CUMULATIVE OUT =   155.00000              TOTAL OUT =  0.50000000    

          IN - OUT = -0.91854844E-08           IN - OUT =  0.25619232E-09
     PERCENT ERROR =  0.00                PERCENT ERROR =  0.00


 
 ------------------------NODE WATER BUDGET-----------------------
  STRESS PERIOD           4  TIME STEP           1
 TOTAL SIMULATION TIME   310.000000000000     
 
 FLOW TO THE NODE IN M^3/D
 
 NODE   FIXED HEAD     RECHARGE        QWELL  MATRIX EXCH      STORAGE      TUBE_IN     TUBE_OUT         CADS     FHLQ(LQ)       CAUCHY   CAUCHY(LQ)          QLH     IN - OUT
   1     0.0000       0.0000       0.0000      0.21103E-01   0.0000       0.0000     -0.21103E-01   0.0000       0.0000       0.0000       0.0000       0.0000     -0.53183E-09
   2    0.15312E-01   0.0000       0.0000       0.0000       0.0000       0.0000     -0.15312E-01   0.0000       0.0000       0.0000       0.0000       0.0000       0.0000    
   3     0.0000       0.0000       0.0000      0.60305E-01   0.0000      0.36414E-01 -0.96720E-01   0.0000       0.0000       0.0000       0.0000       0.0000      0.13415E-08
   4     0.0000      0.30000     -0.50000      0.62685E-01   0.0000      0.13731       0.0000       0.0000       0.0000       0.0000       0.0000       0.0000     -0.41198E-09
   5     0.0000       0.0000       0.0000      0.40595E-01   0.0000       0.0000     -0.40595E-01   0.0000       0.0000       0.0000       0.0000       0.0000     -0.14146E-09
 
 SOLVING FOR HEAD 
MODFLOW ITER.#  NEWTON-RAPHSON ITER.#   MAXIMUM NODE HEAD CHANGE
         1                   1                  0.0000000000
         1                   2                  0.0000000000
         1                   3                  0.0000000000
     1 CALLS TO PCG ROUTINE FOR TIME STEP   2 IN STRESS PERIOD    4
     1 TOTAL ITERATIONS
MODFLOW ITER.#  NEWTON-RAPHSON ITER.#   MAXIMUM NODE HEAD CHANGE
         1                   1                  0.0000000000
         1                   2                  0.0000000000
         1                   3                  0.0000000000

 NO OUTPUT CONTROL FOR STRESS PERIOD    4   TIME STEP   2
 
 
 CFPM1 CRITERION OF CONVERGENCE:     0.1000000E-05
 CFPM1 MAXIMUM NUMBER OF ITERATIONS:   100
 
 
 CFPM1 RESULTS +++++++++++++++++++++++++++++++++++++++++++++++++++++++
 
 STRESS PERIOD/TIME STEP           4           2
 
NUMBER OF NEWTON RHAPSON ITERATIONS:     3
 
 ------- RESULTS OF FLOW CALCULATION -------
 
NODE# NODE HEAD[M] MATRIX HEAD [M] EXCHANGE [M^3/D]    CADSFLOW            PFPSFLOW         DIRECT RECHARGE        QWELL         FHLQ            CAUCHY         CAUCHY LQ               QLH              QFIX
    1  20.00000      20.00027       -0.2110270E-01       0.000000           0.000000           0.000000        0.000000         0.000000         0.000000         0.000000         0.000000         0.000000    
    2  20.00    FIX  20.00000           0.0000           0.000000           0.000000           0.000000        0.000000         0.000000         0.000000         0.000000         0.000000        0.1531151E-01
    3  20.00000      20.00026       -0.6030549E-01       0.000000           0.000000           0.000000        0.000000         0.000000         0.000000         0.000000         0.000000         0.000000    
    4  20.00000      20.00040       -0.6268510E-01       0.000000           0.000000          0.3000000       -.5000000         0.000000         0.000000         0.000000         0.000000         0.000000    
    5  20.00000      20.00052       -0.4059520E-01       0.000000           0.000000           0.000000        0.000000         0.000000         0.000000         0.000000         0.000000         0.000000    
 
TUBE  B  E  FLOW          Q [M^3/D]       DIAM.[M]        LEN.[M]        RE         RESIDENCE TIME [D]
   1   1   3   LAMI.         0.02110        0.10000       10.00000        3.48201        3.72179
   2   2   3   LAMI.         0.01531        0.10000       10.00000        2.52645        5.12946
   3   3   4   TURB.         0.09672        0.10000       10.00000       15.95905        0.81204
   4   4   5   LAMI.        -0.04060        0.10000       10.00000        6.69833        1.93471
 

    BUDGET OF THE PIPE SYSTEM OF TIMESTEP    2 IN STRESS PERIOD    4
------------------------------------------------------------------------

  TOTAL SIMULATION TIME   320.000000000000      S
 
       CUMULATIVE VALUES (L**3)           RATES THIS TIME STEP (L**3/T)

            IN:                               IN:
     CONSTANT HEAD =   1.8373866          CONSTANT HEAD =  0.15311510E-01
      FHLQ BC (LQ) =   10.000000           FHLQ BC (LQ) =   0.0000000    
   MATRIX EXCHANGE =   82.162613        MATRIX EXCHANGE =  0.18468849    
     PIPE RECHARGE =   66.000000          PIPE RECHARGE =  0.30000000    
           WELL BC =   0.0000000                WELL BC =   0.0000000    
       PFP STORAGE =   0.0000000            PFP STORAGE =   0.0000000    

     CUMULATIVE IN =   160.00000               TOTAL IN =  0.50000000    

           OUT:                               OUT:
     CONSTANT HEAD =   0.0000000          CONSTANT HEAD =   0.0000000    
      FHLQ BC (LQ) =   0.0000000           FHLQ BC (LQ) =   0.0000000    
   MATRIX EXCHANGE =   0.0000000        MATRIX EXCHANGE =   0.0000000    
     PIPE RECHARGE =   0.0000000          PIPE RECHARGE =   0.0000000    
           WELL BC =   160.00000                WELL BC =  0.50000000    
       PFP STORAGE =   0.0000000            PFP STORAGE =   0.0000000    

    CUMULATIVE OUT =   160.00000              TOTAL OUT =  0.50000000    

          IN - OUT = -0.51787481E-08           IN - OUT =  0.40067399E-09
     PERCENT ERROR =  0.00                PERCENT ERROR =  0.00


 
 ------------------------NODE WATER BUDGET-----------------------
  STRESS PERIOD           4  TIME STEP           2
 TOTAL SIMULATION TIME   320.000000000000     
 
 FLOW TO THE NODE IN M^3/D
 
 NODE   FIXED HEAD     RECHARGE        QWELL  MATRIX EXCH      STORAGE      TUBE_IN     TUBE_OUT         CADS     FHLQ(LQ)       CAUCHY   CAUCHY(LQ)          QLH     IN - OUT
   1     0.0000       0.0000       0.0000      0.21103E-01   0.0000       0.0000     -0.21103E-01   0.0000       0.0000       0.0000       0.0000       0.0000     -0.41705E-09
   2    0.15312E-01   0.0000       0.0000       0.0000       0.0000       0.0000     -0.15312E-01   0.0000       0.0000       0.0000       0.0000       0.0000       0.0000    
   3     0.0000       0.0000       0.0000      0.60305E-01   0.0000      0.36414E-01 -0.96720E-01   0.0000       0.0000       0.0000       0.0000       0.0000      0.35642E-08
   4     0.0000      0.30000     -0.50000      0.62685E-01   0.0000      0.13731       0.0000       0.0000       0.0000       0.0000       0.0000       0.0000     -0.32596E-08
   5     0.0000       0.0000       0.0000      0.40595E-01   0.0000       0.0000     -0.40595E-01   0.0000       0.0000       0.0000       0.0000       0.0000      0.51314E-09
 
 SOLVING FOR HEAD 
MODFLOW ITER.#  NEWTON-RAPHSON ITER.#   MAXIMUM NODE HEAD CHANGE
         1                   1                  0.0000000000
         1                   2                  0.0000000000
         1                   3                  0.0000000000
     1 CALLS TO PCG ROUTINE FOR TIME STEP   3 IN STRESS PERIOD    4
     1 TOTAL ITERATIONS
MODFLOW ITER.#  NEWTON-RAPHSON ITER.#   MAXIMUM NODE HEAD CHANGE
         1                   1                  0.0000000000
         1                   2                  0.0000000000
         1                   3                  0.0000000000

 NO OUTPUT CONTROL FOR STRESS PERIOD    4   TIME STEP   3
 
 
 CFPM1 CRITERION OF CONVERGENCE:     0.1000000E-05
 CFPM1 MAXIMUM NUMBER OF ITERATIONS:   100
 
 
 CFPM1 RESULTS +++++++++++++++++++++++++++++++++++++++++++++++++++++++
 
 STRESS PERIOD/TIME STEP           4           3
 
NUMBER OF NEWTON RHAPSON ITERATIONS:     3
 
 ------- RESULTS OF FLOW CALCULATION -------
 
NODE# NODE HEAD[M] MATRIX HEAD [M] EXCHANGE [M^3/D]    CADSFLOW            PFPSFLOW         DIRECT RECHARGE        QWELL         FHLQ            CAUCHY         CAUCHY LQ               QLH              QFIX
    1  20.00000      20.00027       -0.2110270E-01       0.000000           0.000000           0.000000        0.000000         0.000000         0.000000         0.000000         0.000000         0.000000    
    2  20.00    FIX  20.00000           0.0000           0.000000           0.000000           0.000000        0.000000         0.000000         0.000000         0.000000         0.000000        0.1531145E-01
    3  20.00000      20.00026       -0.6030550E-01       0.000000           0.000000           0.000000        0.000000         0.000000         0.000000         0.000000         0.000000         0.000000    
    4  20.00000      20.00040       -0.6268512E-01       0.000000           0.000000          0.3000000       -.5000000         0.000000         0.000000         0.000000         0.000000         0.000000    
    5  20.00000      20.00052       -0.4059522E-01       0.000000           0.000000           0.000000        0.000000         0.000000         0.000000         0.000000         0.000000         0.000000    
 
TUBE  B  E  FLOW          Q [M^3/D]       DIAM.[M]        LEN.[M]        RE         RESIDENCE TIME [D]
   1   1   3   LAMI.         0.02110        0.10000       10.00000        3.48201        3.72179
   2   2   3   LAMI.         0.01531        0.10000       10.00000        2.52644        5.12948
   3   3   4   TURB.         0.09672        0.10000       10.00000       15.95904        0.81204
   4   4   5   LAMI.        -0.04060        0.10000       10.00000        6.69834        1.93471
 

    BUDGET OF THE PIPE SYSTEM OF TIMESTEP    3 IN STRESS PERIOD    4
------------------------------------------------------------------------

  TOTAL SIMULATION TIME   330.000000000000      S
 
       CUMULATIVE VALUES (L**3)           RATES THIS TIME STEP (L**3/T)

            IN:                               IN:
     CONSTANT HEAD =   1.9905012          CONSTANT HEAD =  0.15311453E-01
      FHLQ BC (LQ) =   10.000000           FHLQ BC (LQ) =   0.0000000    
   MATRIX EXCHANGE =   84.009499        MATRIX EXCHANGE =  0.18468855    
     PIPE RECHARGE =   69.000000          PIPE RECHARGE =  0.30000000    
           WELL BC =   0.0000000                WELL BC =   0.0000000    
       PFP STORAGE =   0.0000000            PFP STORAGE =   0.0000000    

     CUMULATIVE IN =   165.00000               TOTAL IN =  0.50000000    

           OUT:                               OUT:
     CONSTANT HEAD =   0.0000000          CONSTANT HEAD =   0.0000000    
      FHLQ BC (LQ) =   0.0000000           FHLQ BC (LQ) =   0.0000000    
   MATRIX EXCHANGE =   0.0000000        MATRIX EXCHANGE =   0.0000000    
     PIPE RECHARGE =   0.0000000          PIPE RECHARGE =   0.0000000    
           WELL BC =   165.00000                WELL BC =  0.50000000    
       PFP STORAGE =   0.0000000            PFP STORAGE =   0.0000000    

    CUMULATIVE OUT =   165.00000              TOTAL OUT =  0.50000000    

          IN - OUT = -0.36860257E-08           IN - OUT =  0.14927237E-09
     PERCENT ERROR =  0.00                PERCENT ERROR =  0.00


 
 ------------------------NODE WATER BUDGET-----------------------
  STRESS PERIOD           4  TIME STEP           3
 TOTAL SIMULATION TIME   330.000000000000     
 
 FLOW TO THE NODE IN M^3/D
 
 NODE   FIXED HEAD     RECHARGE        QWELL  MATRIX EXCH      STORAGE      TUBE_IN     TUBE_OUT         CADS     FHLQ(LQ)       CAUCHY   CAUCHY(LQ)          QLH     IN - OUT
   1     0.0000       0.0000       0.0000      0.21103E-01   0.0000       0.0000     -0.21103E-01   0.0000       0.0000       0.0000       0.0000       0.0000     -0.36752E-09
   2    0.15311E-01   0.0000       0.0000       0.0000       0.0000       0.0000     -0.15311E-01   0.0000       0.0000       0.0000       0.0000       0.0000       0.0000    
   3     0.0000       0.0000       0.0000      0.60306E-01   0.0000      0.36414E-01 -0.96720E-01   0.0000       0.0000       0.0000       0.0000       0.0000      0.99782E-09
   4     0.0000      0.30000     -0.50000      0.62685E-01   0.0000      0.13731       0.0000       0.0000       0.0000       0.0000       0.0000       0.0000     -0.25085E-09
   5     0.0000       0.0000       0.0000      0.40595E-01   0.0000       0.0000     -0.40595E-01   0.0000       0.0000       0.0000       0.0000       0.0000     -0.23017E-09
 
 SOLVING FOR HEAD 
MODFLOW ITER.#  NEWTON-RAPHSON ITER.#   MAXIMUM NODE HEAD CHANGE
         1                   1                  0.0000000000
         1                   2                  0.0000000000
         1                   3                  0.0000000000
     1 CALLS TO PCG ROUTINE FOR TIME STEP   4 IN STRESS PERIOD    4
     1 TOTAL ITERATIONS
MODFLOW ITER.#  NEWTON-RAPHSON ITER.#   MAXIMUM NODE HEAD CHANGE
         1                   1                  0.0000000000
         1                   2                  0.0000000000
         1                   3                  0.0000000000

 NO OUTPUT CONTROL FOR STRESS PERIOD    4   TIME STEP   4
 
 
 CFPM1 CRITERION OF CONVERGENCE:     0.1000000E-05
 CFPM1 MAXIMUM NUMBER OF ITERATIONS:   100
 
 
 CFPM1 RESULTS +++++++++++++++++++++++++++++++++++++++++++++++++++++++
 
 STRESS PERIOD/TIME STEP           4           4
 
NUMBER OF NEWTON RHAPSON ITERATIONS:     3
 
 ------- RESULTS OF FLOW CALCULATION -------
 
NODE# NODE HEAD[M] MATRIX HEAD [M] EXCHANGE [M^3/D]    CADSFLOW            PFPSFLOW         DIRECT RECHARGE        QWELL         FHLQ            CAUCHY         CAUCHY LQ               QLH              QFIX
    1  20.00000      20.00027       -0.2110271E-01       0.000000           0.000000           0.000000        0.000000         0.000000         0.000000         0.000000         0.000000         0.000000    
    2  20.00    FIX  20.00000           0.0000           0.000000           0.000000           0.000000        0.000000         0.000000         0.000000         0.000000         0.000000        0.1531143E-01
    3  20.00000      20.00026       -0.6030551E-01       0.000000           0.000000           0.000000        0.000000         0.000000         0.000000         0.000000         0.000000         0.000000    
    4  20.00000      20.00040       -0.6268513E-01       0.000000           0.000000          0.3000000       -.5000000         0.000000         0.000000         0.000000         0.000000         0.000000    
    5  20.00000      20.00052       -0.4059522E-01       0.000000           0.000000           0.000000        0.000000         0.000000         0.000000         0.000000         0.000000         0.000000    
 
TUBE  B  E  FLOW          Q [M^3/D]       DIAM.[M]        LEN.[M]        RE         RESIDENCE TIME [D]
   1   1   3   LAMI.         0.02110        0.10000       10.00000        3.48201        3.72179
   2   2   3   LAMI.         0.01531        0.10000       10.00000        2.52643        5.12949
   3   3   4   TURB.         0.09672        0.10000       10.00000       15.95904        0.81204
   4   4   5   LAMI.        -0.04060        0.10000       10.00000        6.69834        1.93471
 

    BUDGET OF THE PIPE SYSTEM OF TIMESTEP    4 IN STRESS PERIOD    4
------------------------------------------------------------------------

  TOTAL SIMULATION TIME   340.000000000000      S
 
       CUMULATIVE VALUES (L**3)           RATES THIS TIME STEP (L**3/T)

            IN:                               IN:
     CONSTANT HEAD =   2.1436155          CONSTANT HEAD =  0.15311434E-01
      FHLQ BC (LQ) =   10.000000           FHLQ BC (LQ) =   0.0000000    
   MATRIX EXCHANGE =   85.856384        MATRIX EXCHANGE =  0.18468857    
     PIPE RECHARGE =   72.000000          PIPE RECHARGE =  0.30000000    
           WELL BC =   0.0000000                WELL BC =   0.0000000    
       PFP STORAGE =   0.0000000            PFP STORAGE =   0.0000000    

     CUMULATIVE IN =   170.00000               TOTAL IN =  0.50000000    

           OUT:                               OUT:
     CONSTANT HEAD =   0.0000000          CONSTANT HEAD =   0.0000000    
      FHLQ BC (LQ) =   0.0000000           FHLQ BC (LQ) =   0.0000000    
   MATRIX EXCHANGE =   0.0000000        MATRIX EXCHANGE =   0.0000000    
     PIPE RECHARGE =   0.0000000          PIPE RECHARGE =   0.0000000    
           WELL BC =   170.00000                WELL BC =  0.50000000    
       PFP STORAGE =   0.0000000            PFP STORAGE =   0.0000000    

    CUMULATIVE OUT =   170.00000              TOTAL OUT =  0.50000000    

          IN - OUT = -0.26229969E-08           IN - OUT =  0.10630313E-09
     PERCENT ERROR =  0.00                PERCENT ERROR =  0.00


 
 ------------------------NODE WATER BUDGET-----------------------
  STRESS PERIOD           4  TIME STEP           4
 TOTAL SIMULATION TIME   340.000000000000     
 
 FLOW TO THE NODE IN M^3/D
 
 NODE   FIXED HEAD     RECHARGE        QWELL  MATRIX EXCH      STORAGE      TUBE_IN     TUBE_OUT         CADS     FHLQ(LQ)       CAUCHY   CAUCHY(LQ)          QLH     IN - OUT
   1     0.0000       0.0000       0.0000      0.21103E-01   0.0000       0.0000     -0.21103E-01   0.0000       0.0000       0.0000       0.0000       0.0000     -0.85445E-10
   2    0.15311E-01   0.0000       0.0000       0.0000       0.0000       0.0000     -0.15311E-01   0.0000       0.0000       0.0000       0.0000       0.0000       0.0000    
   3     0.0000       0.0000       0.0000      0.60306E-01   0.0000      0.36414E-01 -0.96720E-01   0.0000       0.0000       0.0000       0.0000       0.0000      0.25762E-08
   4     0.0000      0.30000     -0.50000      0.62685E-01   0.0000      0.13731       0.0000       0.0000       0.0000       0.0000       0.0000       0.0000     -0.30169E-08
   5     0.0000       0.0000       0.0000      0.40595E-01   0.0000       0.0000     -0.40595E-01   0.0000       0.0000       0.0000       0.0000       0.0000      0.63239E-09
 
 SOLVING FOR HEAD 
MODFLOW ITER.#  NEWTON-RAPHSON ITER.#   MAXIMUM NODE HEAD CHANGE
         1                   1                  0.0000000000
         1                   2                  0.0000000000
         1                   3                  0.0000000000
     1 CALLS TO PCG ROUTINE FOR TIME STEP   5 IN STRESS PERIOD    4
     1 TOTAL ITERATIONS

 MAXIMUM HEAD CHANGE FOR EACH ITERATION (1 INDICATES THE FIRST INNER ITERATION):

    HEAD CHANGE    HEAD CHANGE    HEAD CHANGE    HEAD CHANGE    HEAD CHANGE 
   LAYER,ROW,COL  LAYER,ROW,COL  LAYER,ROW,COL  LAYER,ROW,COL  LAYER,ROW,COL
 ---------------------------------------------------------------------------
  1  0.4829E-10
   (  1,  3,  4)

 MAXIMUM RESIDUAL FOR EACH ITERATION (1 INDICATES THE FIRST INNER ITERATION):

    RESIDUAL       RESIDUAL       RESIDUAL       RESIDUAL       RESIDUAL    
   LAYER,ROW,COL  LAYER,ROW,COL  LAYER,ROW,COL  LAYER,ROW,COL  LAYER,ROW,COL
 ---------------------------------------------------------------------------
  1 -0.1031E-06
   (  3,  2,  4)


MODFLOW ITER.#  NEWTON-RAPHSON ITER.#   MAXIMUM NODE HEAD CHANGE
         1                   1                  0.0000000000
         1                   2                  0.0000000000
         1                   3                  0.0000000000

 NO OUTPUT CONTROL FOR STRESS PERIOD    4   TIME STEP   5
 
 
 CFPM1 CRITERION OF CONVERGENCE:     0.1000000E-05
 CFPM1 MAXIMUM NUMBER OF ITERATIONS:   100
 
 
 CFPM1 RESULTS +++++++++++++++++++++++++++++++++++++++++++++++++++++++
 
 STRESS PERIOD/TIME STEP           4           5
 
NUMBER OF NEWTON RHAPSON ITERATIONS:     3
 
 ------- RESULTS OF FLOW CALCULATION -------
 
NODE# NODE HEAD[M] MATRIX HEAD [M] EXCHANGE [M^3/D]    CADSFLOW            PFPSFLOW         DIRECT RECHARGE        QWELL         FHLQ            CAUCHY         CAUCHY LQ               QLH              QFIX
    1  20.00000      20.00027       -0.2110271E-01       0.000000           0.000000           0.000000        0.000000         0.000000         0.000000         0.000000         0.000000         0.000000    
    2  20.00    FIX  20.00000           0.0000           0.000000           0.000000           0.000000        0.000000         0.000000         0.000000         0.000000         0.000000        0.1531142E-01
    3  20.00000      20.00026       -0.6030552E-01       0.000000           0.000000           0.000000        0.000000         0.000000         0.000000         0.000000         0.000000         0.000000    
    4  20.00000      20.00040       -0.6268513E-01       0.000000           0.000000          0.3000000       -.5000000         0.000000         0.000000         0.000000         0.000000         0.000000    
    5  20.00000      20.00052       -0.4059523E-01       0.000000           0.000000           0.000000        0.000000         0.000000         0.000000         0.000000         0.000000         0.000000    
 
TUBE  B  E  FLOW          Q [M^3/D]       DIAM.[M]        LEN.[M]        RE         RESIDENCE TIME [D]
   1   1   3   LAMI.         0.02110        0.10000       10.00000        3.48201        3.72179
   2   2   3   LAMI.         0.01531        0.10000       10.00000        2.52643        5.12949
   3   3   4   TURB.         0.09672        0.10000       10.00000       15.95904        0.81204
   4   4   5   LAMI.        -0.04060        0.10000       10.00000        6.69834        1.93471
 

    BUDGET OF THE PIPE SYSTEM OF TIMESTEP    5 IN STRESS PERIOD    4
------------------------------------------------------------------------

  TOTAL SIMULATION TIME   350.000000000000      S
 
       CUMULATIVE VALUES (L**3)           RATES THIS TIME STEP (L**3/T)

            IN:                               IN:
     CONSTANT HEAD =   2.2967297          CONSTANT HEAD =  0.15311416E-01
      FHLQ BC (LQ) =   10.000000           FHLQ BC (LQ) =   0.0000000    
   MATRIX EXCHANGE =   87.703270        MATRIX EXCHANGE =  0.18468858    
     PIPE RECHARGE =   75.000000          PIPE RECHARGE =  0.30000000    
           WELL BC =   0.0000000                WELL BC =   0.0000000    
       PFP STORAGE =   0.0000000            PFP STORAGE =   0.0000000    

     CUMULATIVE IN =   175.00000               TOTAL IN =  0.50000000    

           OUT:                               OUT:
     CONSTANT HEAD =   0.0000000          CONSTANT HEAD =   0.0000000    
      FHLQ BC (LQ) =   0.0000000           FHLQ BC (LQ) =   0.0000000    
   MATRIX EXCHANGE =   0.0000000        MATRIX EXCHANGE =   0.0000000    
     PIPE RECHARGE =   0.0000000          PIPE RECHARGE =   0.0000000    
           WELL BC =   175.00000                WELL BC =  0.50000000    
       PFP STORAGE =   0.0000000            PFP STORAGE =   0.0000000    

    CUMULATIVE OUT =   175.00000              TOTAL OUT =  0.50000000    

          IN - OUT =  0.14155859E-08           IN - OUT =  0.40385895E-09
     PERCENT ERROR =  0.00                PERCENT ERROR =  0.00


 
 ------------------------NODE WATER BUDGET-----------------------
  STRESS PERIOD           4  TIME STEP           5
 TOTAL SIMULATION TIME   350.000000000000     
 
 FLOW TO THE NODE IN M^3/D
 
 NODE   FIXED HEAD     RECHARGE        QWELL  MATRIX EXCH      STORAGE      TUBE_IN     TUBE_OUT         CADS     FHLQ(LQ)       CAUCHY   CAUCHY(LQ)          QLH     IN - OUT
   1     0.0000       0.0000       0.0000      0.21103E-01   0.0000       0.0000     -0.21103E-01   0.0000       0.0000       0.0000       0.0000       0.0000     -0.80816E-09
   2    0.15311E-01   0.0000       0.0000       0.0000       0.0000       0.0000     -0.15311E-01   0.0000       0.0000       0.0000       0.0000       0.0000       0.0000    
   3     0.0000       0.0000       0.0000      0.60306E-01   0.0000      0.36414E-01 -0.96720E-01   0.0000       0.0000       0.0000       0.0000       0.0000      0.15710E-08
   4     0.0000      0.30000     -0.50000      0.62685E-01   0.0000      0.13731       0.0000       0.0000       0.0000       0.0000       0.0000       0.0000      0.18759E-09
   5     0.0000       0.0000       0.0000      0.40595E-01   0.0000       0.0000     -0.40595E-01   0.0000       0.0000       0.0000       0.0000       0.0000     -0.54655E-09
 
 SOLVING FOR HEAD 
MODFLOW ITER.#  NEWTON-RAPHSON ITER.#   MAXIMUM NODE HEAD CHANGE
         1                   1                  0.0000000000
         1                   2                  0.0000000000
         1                   3                  0.0000000000
     1 CALLS TO PCG ROUTINE FOR TIME STEP   6 IN STRESS PERIOD    4
     1 TOTAL ITERATIONS
MODFLOW ITER.#  NEWTON-RAPHSON ITER.#   MAXIMUM NODE HEAD CHANGE
         1                   1                  0.0000000000
         1                   2                  0.0000000000
         1                   3                  0.0000000000

 NO OUTPUT CONTROL FOR STRESS PERIOD    4   TIME STEP   6
 
 
 CFPM1 CRITERION OF CONVERGENCE:     0.1000000E-05
 CFPM1 MAXIMUM NUMBER OF ITERATIONS:   100
 
 
 CFPM1 RESULTS +++++++++++++++++++++++++++++++++++++++++++++++++++++++
 
 STRESS PERIOD/TIME STEP           4           6
 
NUMBER OF NEWTON RHAPSON ITERATIONS:     3
 
 ------- RESULTS OF FLOW CALCULATION -------
 
NODE# NODE HEAD[M] MATRIX HEAD [M] EXCHANGE [M^3/D]    CADSFLOW            PFPSFLOW         DIRECT RECHARGE        QWELL         FHLQ            CAUCHY         CAUCHY LQ               QLH              QFIX
    1  20.00000      20.00027       -0.2110271E-01       0.000000           0.000000           0.000000        0.000000         0.000000         0.000000         0.000000         0.000000         0.000000    
    2  20.00    FIX  20.00000           0.0000           0.000000           0.000000           0.000000        0.000000         0.000000         0.000000         0.000000         0.000000        0.1531141E-01
    3  20.00000      20.00026       -0.6030552E-01       0.000000           0.000000           0.000000        0.000000         0.000000         0.000000         0.000000         0.000000         0.000000    
    4  20.00000      20.00040       -0.6268513E-01       0.000000           0.000000          0.3000000       -.5000000         0.000000         0.000000         0.000000         0.000000         0.000000    
    5  20.00000      20.00052       -0.4059523E-01       0.000000           0.000000           0.000000        0.000000         0.000000         0.000000         0.000000         0.000000         0.000000    
 
TUBE  B  E  FLOW          Q [M^3/D]       DIAM.[M]        LEN.[M]        RE         RESIDENCE TIME [D]
   1   1   3   LAMI.         0.02110        0.10000       10.00000        3.48201        3.72179
   2   2   3   LAMI.         0.01531        0.10000       10.00000        2.52643        5.12950
   3   3   4   TURB.         0.09672        0.10000       10.00000       15.95904        0.81204
   4   4   5   LAMI.        -0.04060        0.10000       10.00000        6.69834        1.93471
 

    BUDGET OF THE PIPE SYSTEM OF TIMESTEP    6 IN STRESS PERIOD    4
------------------------------------------------------------------------

  TOTAL SIMULATION TIME   360.000000000000      S
 
       CUMULATIVE VALUES (L**3)           RATES THIS TIME STEP (L**3/T)

            IN:                               IN:
     CONSTANT HEAD =   2.4498438          CONSTANT HEAD =  0.15311409E-01
      FHLQ BC (LQ) =   10.000000           FHLQ BC (LQ) =   0.0000000    
   MATRIX EXCHANGE =   89.550156        MATRIX EXCHANGE =  0.18468859    
     PIPE RECHARGE =   78.000000          PIPE RECHARGE =  0.30000000    
           WELL BC =   0.0000000                WELL BC =   0.0000000    
       PFP STORAGE =   0.0000000            PFP STORAGE =   0.0000000    

     CUMULATIVE IN =   180.00000               TOTAL IN =  0.50000000    

           OUT:                               OUT:
     CONSTANT HEAD =   0.0000000          CONSTANT HEAD =   0.0000000    
      FHLQ BC (LQ) =   0.0000000           FHLQ BC (LQ) =   0.0000000    
   MATRIX EXCHANGE =   0.0000000        MATRIX EXCHANGE =   0.0000000    
     PIPE RECHARGE =   0.0000000          PIPE RECHARGE =   0.0000000    
           WELL BC =   180.00000                WELL BC =  0.50000000    
       PFP STORAGE =   0.0000000            PFP STORAGE =   0.0000000    

    CUMULATIVE OUT =   180.00000              TOTAL OUT =  0.50000000    

          IN - OUT =  0.17962520E-10           IN - OUT = -0.13976273E-09
     PERCENT ERROR =  0.00                PERCENT ERROR =  0.00


 
 ------------------------NODE WATER BUDGET-----------------------
  STRESS PERIOD           4  TIME STEP           6
 TOTAL SIMULATION TIME   360.000000000000     
 
 FLOW TO THE NODE IN M^3/D
 
 NODE   FIXED HEAD     RECHARGE        QWELL  MATRIX EXCH      STORAGE      TUBE_IN     TUBE_OUT         CADS     FHLQ(LQ)       CAUCHY   CAUCHY(LQ)          QLH     IN - OUT
   1     0.0000       0.0000       0.0000      0.21103E-01   0.0000       0.0000     -0.21103E-01   0.0000       0.0000       0.0000       0.0000       0.0000      0.98412E-10
   2    0.15311E-01   0.0000       0.0000       0.0000       0.0000       0.0000     -0.15311E-01   0.0000       0.0000       0.0000       0.0000       0.0000       0.0000    
   3     0.0000       0.0000       0.0000      0.60306E-01   0.0000      0.36414E-01 -0.96720E-01   0.0000       0.0000       0.0000       0.0000       0.0000     -0.27083E-08
   4     0.0000      0.30000     -0.50000      0.62685E-01   0.0000      0.13731       0.0000       0.0000       0.0000       0.0000       0.0000       0.0000      0.25540E-08
   5     0.0000       0.0000       0.0000      0.40595E-01   0.0000       0.0000     -0.40595E-01   0.0000       0.0000       0.0000       0.0000       0.0000     -0.83837E-10
 
 SOLVING FOR HEAD 
MODFLOW ITER.#  NEWTON-RAPHSON ITER.#   MAXIMUM NODE HEAD CHANGE
         1                   1                  0.0000000000
         1                   2                  0.0000000000
         1                   3                  0.0000000000
     1 CALLS TO PCG ROUTINE FOR TIME STEP   7 IN STRESS PERIOD    4
     1 TOTAL ITERATIONS
MODFLOW ITER.#  NEWTON-RAPHSON ITER.#   MAXIMUM NODE HEAD CHANGE
         1                   1                  0.0000000000
         1                   2                  0.0000000000
         1                   3                  0.0000000000

 NO OUTPUT CONTROL FOR STRESS PERIOD    4   TIME STEP   7
 
 
 CFPM1 CRITERION OF CONVERGENCE:     0.1000000E-05
 CFPM1 MAXIMUM NUMBER OF ITERATIONS:   100
 
 
 CFPM1 RESULTS +++++++++++++++++++++++++++++++++++++++++++++++++++++++
 
 STRESS PERIOD/TIME STEP           4           7
 
NUMBER OF NEWTON RHAPSON ITERATIONS:     3
 
 ------- RESULTS OF FLOW CALCULATION -------
 
NODE# NODE HEAD[M] MATRIX HEAD [M] EXCHANGE [M^3/D]    CADSFLOW            PFPSFLOW         DIRECT RECHARGE        QWELL         FHLQ            CAUCHY         CAUCHY LQ               QLH              QFIX
    1  20.00000      20.00027       -0.2110271E-01       0.000000           0.000000           0.000000        0.000000         0.000000         0.000000         0.000000         0.000000         0.000000    
    2  20.00    FIX  20.00000           0.0000           0.000000           0.000000           0.000000        0.000000         0.000000         0.000000         0.000000         0.000000        0.1531140E-01
    3  20.00000      20.00026       -0.6030552E-01       0.000000           0.000000           0.000000        0.000000         0.000000         0.000000         0.000000         0.000000         0.000000    
    4  20.00000      20.00040       -0.6268514E-01       0.000000           0.000000          0.3000000       -.5000000         0.000000         0.000000         0.000000         0.000000         0.000000    
    5  20.00000      20.00052       -0.4059523E-01       0.000000           0.000000           0.000000        0.000000         0.000000         0.000000         0.000000         0.000000         0.000000    
 
TUBE  B  E  FLOW          Q [M^3/D]       DIAM.[M]        LEN.[M]        RE         RESIDENCE TIME [D]
   1   1   3   LAMI.         0.02110        0.10000       10.00000        3.48201        3.72179
   2   2   3   LAMI.         0.01531        0.10000       10.00000        2.52643        5.12950
   3   3   4   TURB.         0.09672        0.10000       10.00000       15.95904        0.81204
   4   4   5   LAMI.        -0.04060        0.10000       10.00000        6.69834        1.93471
 

    BUDGET OF THE PIPE SYSTEM OF TIMESTEP    7 IN STRESS PERIOD    4
------------------------------------------------------------------------

  TOTAL SIMULATION TIME   370.000000000000      S
 
       CUMULATIVE VALUES (L**3)           RATES THIS TIME STEP (L**3/T)

            IN:                               IN:
     CONSTANT HEAD =   2.6029578          CONSTANT HEAD =  0.15311403E-01
      FHLQ BC (LQ) =   10.000000           FHLQ BC (LQ) =   0.0000000    
   MATRIX EXCHANGE =   91.397042        MATRIX EXCHANGE =  0.18468860    
     PIPE RECHARGE =   81.000000          PIPE RECHARGE =  0.30000000    
           WELL BC =   0.0000000                WELL BC =   0.0000000    
       PFP STORAGE =   0.0000000            PFP STORAGE =   0.0000000    

     CUMULATIVE IN =   185.00000               TOTAL IN =  0.50000000    

           OUT:                               OUT:
     CONSTANT HEAD =   0.0000000          CONSTANT HEAD =   0.0000000    
      FHLQ BC (LQ) =   0.0000000           FHLQ BC (LQ) =   0.0000000    
   MATRIX EXCHANGE =   0.0000000        MATRIX EXCHANGE =   0.0000000    
     PIPE RECHARGE =   0.0000000          PIPE RECHARGE =   0.0000000    
           WELL BC =   185.00000                WELL BC =  0.50000000    
       PFP STORAGE =   0.0000000            PFP STORAGE =   0.0000000    

    CUMULATIVE OUT =   185.00000              TOTAL OUT =  0.50000000    

          IN - OUT =  0.21699549E-08           IN - OUT =  0.21519952E-09
     PERCENT ERROR =  0.00                PERCENT ERROR =  0.00


 
 ------------------------NODE WATER BUDGET-----------------------
  STRESS PERIOD           4  TIME STEP           7
 TOTAL SIMULATION TIME   370.000000000000     
 
 FLOW TO THE NODE IN M^3/D
 
 NODE   FIXED HEAD     RECHARGE        QWELL  MATRIX EXCH      STORAGE      TUBE_IN     TUBE_OUT         CADS     FHLQ(LQ)       CAUCHY   CAUCHY(LQ)          QLH     IN - OUT
   1     0.0000       0.0000       0.0000      0.21103E-01   0.0000       0.0000     -0.21103E-01   0.0000       0.0000       0.0000       0.0000       0.0000     -0.17580E-10
   2    0.15311E-01   0.0000       0.0000       0.0000       0.0000       0.0000     -0.15311E-01   0.0000       0.0000       0.0000       0.0000       0.0000       0.0000    
   3     0.0000       0.0000       0.0000      0.60306E-01   0.0000      0.36414E-01 -0.96720E-01   0.0000       0.0000       0.0000       0.0000       0.0000      0.29913E-08
   4     0.0000      0.30000     -0.50000      0.62685E-01   0.0000      0.13731       0.0000       0.0000       0.0000       0.0000       0.0000       0.0000     -0.28093E-08
   5     0.0000       0.0000       0.0000      0.40595E-01   0.0000       0.0000     -0.40595E-01   0.0000       0.0000       0.0000       0.0000       0.0000      0.50740E-10
 
 SOLVING FOR HEAD 
MODFLOW ITER.#  NEWTON-RAPHSON ITER.#   MAXIMUM NODE HEAD CHANGE
         1                   1                  0.0000000000
         1                   2                  0.0000000000
         1                   3                  0.0000000000
     1 CALLS TO PCG ROUTINE FOR TIME STEP   8 IN STRESS PERIOD    4
     1 TOTAL ITERATIONS
MODFLOW ITER.#  NEWTON-RAPHSON ITER.#   MAXIMUM NODE HEAD CHANGE
         1                   1                  0.0000000000
         1                   2                  0.0000000000
         1                   3                  0.0000000000

 NO OUTPUT CONTROL FOR STRESS PERIOD    4   TIME STEP   8
 
 
 CFPM1 CRITERION OF CONVERGENCE:     0.1000000E-05
 CFPM1 MAXIMUM NUMBER OF ITERATIONS:   100
 
 
 CFPM1 RESULTS +++++++++++++++++++++++++++++++++++++++++++++++++++++++
 
 STRESS PERIOD/TIME STEP           4           8
 
NUMBER OF NEWTON RHAPSON ITERATIONS:     3
 
 ------- RESULTS OF FLOW CALCULATION -------
 
NODE# NODE HEAD[M] MATRIX HEAD [M] EXCHANGE [M^3/D]    CADSFLOW            PFPSFLOW         DIRECT RECHARGE        QWELL         FHLQ            CAUCHY         CAUCHY LQ               QLH              QFIX
    1  20.00000      20.00027       -0.2110271E-01       0.000000           0.000000           0.000000        0.000000         0.000000         0.000000         0.000000         0.000000         0.000000    
    2  20.00    FIX  20.00000           0.0000           0.000000           0.000000           0.000000        0.000000         0.000000         0.000000         0.000000         0.000000        0.1531140E-01
    3  20.00000      20.00026       -0.6030552E-01       0.000000           0.000000           0.000000        0.000000         0.000000         0.000000         0.000000         0.000000         0.000000    
    4  20.00000      20.00040       -0.6268514E-01       0.000000           0.000000          0.3000000       -.5000000         0.000000         0.000000         0.000000         0.000000         0.000000    
    5  20.00000      20.00052       -0.4059523E-01       0.000000           0.000000           0.000000        0.000000         0.000000         0.000000         0.000000         0.000000         0.000000    
 
TUBE  B  E  FLOW          Q [M^3/D]       DIAM.[M]        LEN.[M]        RE         RESIDENCE TIME [D]
   1   1   3   LAMI.         0.02110        0.10000       10.00000        3.48201        3.72179
   2   2   3   LAMI.         0.01531        0.10000       10.00000        2.52643        5.12950
   3   3   4   TURB.         0.09672        0.10000       10.00000       15.95904        0.81204
   4   4   5   LAMI.        -0.04060        0.10000       10.00000        6.69834        1.93471
 

    BUDGET OF THE PIPE SYSTEM OF TIMESTEP    8 IN STRESS PERIOD    4
------------------------------------------------------------------------

  TOTAL SIMULATION TIME   380.000000000000      S
 
       CUMULATIVE VALUES (L**3)           RATES THIS TIME STEP (L**3/T)

            IN:                               IN:
     CONSTANT HEAD =   2.7560718          CONSTANT HEAD =  0.15311400E-01
      FHLQ BC (LQ) =   10.000000           FHLQ BC (LQ) =   0.0000000    
   MATRIX EXCHANGE =   93.243928        MATRIX EXCHANGE =  0.18468860    
     PIPE RECHARGE =   84.000000          PIPE RECHARGE =  0.30000000    
           WELL BC =   0.0000000                WELL BC =   0.0000000    
       PFP STORAGE =   0.0000000            PFP STORAGE =   0.0000000    

     CUMULATIVE IN =   190.00000               TOTAL IN =  0.50000000    

           OUT:                               OUT:
     CONSTANT HEAD =   0.0000000          CONSTANT HEAD =   0.0000000    
      FHLQ BC (LQ) =   0.0000000           FHLQ BC (LQ) =   0.0000000    
   MATRIX EXCHANGE =   0.0000000        MATRIX EXCHANGE =   0.0000000    
     PIPE RECHARGE =   0.0000000          PIPE RECHARGE =   0.0000000    
           WELL BC =   190.00000                WELL BC =  0.50000000    
       PFP STORAGE =   0.0000000            PFP STORAGE =   0.0000000    

    CUMULATIVE OUT =   190.00000              TOTAL OUT =  0.50000000    

          IN - OUT =  0.32686387E-09           IN - OUT = -0.18430982E-09
     PERCENT ERROR =  0.00                PERCENT ERROR =  0.00


 
 ------------------------NODE WATER BUDGET-----------------------
  STRESS PERIOD           4  TIME STEP           8
 TOTAL SIMULATION TIME   380.000000000000     
 
 FLOW TO THE NODE IN M^3/D
 
 NODE   FIXED HEAD     RECHARGE        QWELL  MATRIX EXCH      STORAGE      TUBE_IN     TUBE_OUT         CADS     FHLQ(LQ)       CAUCHY   CAUCHY(LQ)          QLH     IN - OUT
   1     0.0000       0.0000       0.0000      0.21103E-01   0.0000       0.0000     -0.21103E-01   0.0000       0.0000       0.0000       0.0000       0.0000      0.33846E-09
   2    0.15311E-01   0.0000       0.0000       0.0000       0.0000       0.0000     -0.15311E-01   0.0000       0.0000       0.0000       0.0000       0.0000       0.0000    
   3     0.0000       0.0000       0.0000      0.60306E-01   0.0000      0.36414E-01 -0.96720E-01   0.0000       0.0000       0.0000       0.0000       0.0000     -0.34229E-08
   4     0.0000      0.30000     -0.50000      0.62685E-01   0.0000      0.13731       0.0000       0.0000       0.0000       0.0000       0.0000       0.0000      0.30103E-08
   5     0.0000       0.0000       0.0000      0.40595E-01   0.0000       0.0000     -0.40595E-01   0.0000       0.0000       0.0000       0.0000       0.0000     -0.11018E-09
 
 SOLVING FOR HEAD 
MODFLOW ITER.#  NEWTON-RAPHSON ITER.#   MAXIMUM NODE HEAD CHANGE
         1                   1                  0.0000000000
         1                   2                  0.0000000000
         1                   3                  0.0000000000
     1 CALLS TO PCG ROUTINE FOR TIME STEP   9 IN STRESS PERIOD    4
     1 TOTAL ITERATIONS
MODFLOW ITER.#  NEWTON-RAPHSON ITER.#   MAXIMUM NODE HEAD CHANGE
         1                   1                  0.0000000000
         1                   2                  0.0000000000
         1                   3                  0.0000000000

 NO OUTPUT CONTROL FOR STRESS PERIOD    4   TIME STEP   9
 
 
 CFPM1 CRITERION OF CONVERGENCE:     0.1000000E-05
 CFPM1 MAXIMUM NUMBER OF ITERATIONS:   100
 
 
 CFPM1 RESULTS +++++++++++++++++++++++++++++++++++++++++++++++++++++++
 
 STRESS PERIOD/TIME STEP           4           9
 
NUMBER OF NEWTON RHAPSON ITERATIONS:     3
 
 ------- RESULTS OF FLOW CALCULATION -------
 
NODE# NODE HEAD[M] MATRIX HEAD [M] EXCHANGE [M^3/D]    CADSFLOW            PFPSFLOW         DIRECT RECHARGE        QWELL         FHLQ            CAUCHY         CAUCHY LQ               QLH              QFIX
    1  20.00000      20.00027       -0.2110271E-01       0.000000           0.000000           0.000000        0.000000         0.000000         0.000000         0.000000         0.000000         0.000000    
    2  20.00    FIX  20.00000           0.0000           0.000000           0.000000           0.000000        0.000000         0.000000         0.000000         0.000000         0.000000        0.1531140E-01
    3  20.00000      20.00026       -0.6030552E-01       0.000000           0.000000           0.000000        0.000000         0.000000         0.000000         0.000000         0.000000         0.000000    
    4  20.00000      20.00040       -0.6268514E-01       0.000000           0.000000          0.3000000       -.5000000         0.000000         0.000000         0.000000         0.000000         0.000000    
    5  20.00000      20.00052       -0.4059523E-01       0.000000           0.000000           0.000000        0.000000         0.000000         0.000000         0.000000         0.000000         0.000000    
 
TUBE  B  E  FLOW          Q [M^3/D]       DIAM.[M]        LEN.[M]        RE         RESIDENCE TIME [D]
   1   1   3   LAMI.         0.02110        0.10000       10.00000        3.48201        3.72179
   2   2   3   LAMI.         0.01531        0.10000       10.00000        2.52643        5.12950
   3   3   4   TURB.         0.09672        0.10000       10.00000       15.95904        0.81204
   4   4   5   LAMI.        -0.04060        0.10000       10.00000        6.69834        1.93471
 

    BUDGET OF THE PIPE SYSTEM OF TIMESTEP    9 IN STRESS PERIOD    4
------------------------------------------------------------------------

  TOTAL SIMULATION TIME   390.000000000000      S
 
       CUMULATIVE VALUES (L**3)           RATES THIS TIME STEP (L**3/T)

            IN:                               IN:
     CONSTANT HEAD =   2.9091858          CONSTANT HEAD =  0.15311397E-01
      FHLQ BC (LQ) =   10.000000           FHLQ BC (LQ) =   0.0000000    
   MATRIX EXCHANGE =   95.090814        MATRIX EXCHANGE =  0.18468860    
     PIPE RECHARGE =   87.000000          PIPE RECHARGE =  0.30000000    
           WELL BC =   0.0000000                WELL BC =   0.0000000    
       PFP STORAGE =   0.0000000            PFP STORAGE =   0.0000000    

     CUMULATIVE IN =   195.00000               TOTAL IN =  0.50000000    

           OUT:                               OUT:
     CONSTANT HEAD =   0.0000000          CONSTANT HEAD =   0.0000000    
      FHLQ BC (LQ) =   0.0000000           FHLQ BC (LQ) =   0.0000000    
   MATRIX EXCHANGE =   0.0000000        MATRIX EXCHANGE =   0.0000000    
     PIPE RECHARGE =   0.0000000          PIPE RECHARGE =   0.0000000    
           WELL BC =   195.00000                WELL BC =  0.50000000    
       PFP STORAGE =   0.0000000            PFP STORAGE =   0.0000000    

    CUMULATIVE OUT =   195.00000              TOTAL OUT =  0.50000000    

          IN - OUT = -0.32045904E-08           IN - OUT = -0.35314673E-09
     PERCENT ERROR =  0.00                PERCENT ERROR =  0.00


 
 ------------------------NODE WATER BUDGET-----------------------
  STRESS PERIOD           4  TIME STEP           9
 TOTAL SIMULATION TIME   390.000000000000     
 
 FLOW TO THE NODE IN M^3/D
 
 NODE   FIXED HEAD     RECHARGE        QWELL  MATRIX EXCH      STORAGE      TUBE_IN     TUBE_OUT         CADS     FHLQ(LQ)       CAUCHY   CAUCHY(LQ)          QLH     IN - OUT
   1     0.0000       0.0000       0.0000      0.21103E-01   0.0000       0.0000     -0.21103E-01   0.0000       0.0000       0.0000       0.0000       0.0000      0.62335E-09
   2    0.15311E-01   0.0000       0.0000       0.0000       0.0000       0.0000     -0.15311E-01   0.0000       0.0000       0.0000       0.0000       0.0000       0.0000    
   3     0.0000       0.0000       0.0000      0.60306E-01   0.0000      0.36414E-01 -0.96720E-01   0.0000       0.0000       0.0000       0.0000       0.0000     -0.77860E-09
   4     0.0000      0.30000     -0.50000      0.62685E-01   0.0000      0.13731       0.0000       0.0000       0.0000       0.0000       0.0000       0.0000     -0.38991E-09
   5     0.0000       0.0000       0.0000      0.40595E-01   0.0000       0.0000     -0.40595E-01   0.0000       0.0000       0.0000       0.0000       0.0000      0.19201E-09
 
 SOLVING FOR HEAD 
MODFLOW ITER.#  NEWTON-RAPHSON ITER.#   MAXIMUM NODE HEAD CHANGE
         1                   1                  0.0000000000
         1                   2                  0.0000000000
         1                   3                  0.0000000000
     1 CALLS TO PCG ROUTINE FOR TIME STEP  10 IN STRESS PERIOD    4
     1 TOTAL ITERATIONS

 MAXIMUM HEAD CHANGE FOR EACH ITERATION (1 INDICATES THE FIRST INNER ITERATION):

    HEAD CHANGE    HEAD CHANGE    HEAD CHANGE    HEAD CHANGE    HEAD CHANGE 
   LAYER,ROW,COL  LAYER,ROW,COL  LAYER,ROW,COL  LAYER,ROW,COL  LAYER,ROW,COL
 ---------------------------------------------------------------------------
  1  0.1034E-10
   (  3,  1,  4)

 MAXIMUM RESIDUAL FOR EACH ITERATION (1 INDICATES THE FIRST INNER ITERATION):

    RESIDUAL       RESIDUAL       RESIDUAL       RESIDUAL       RESIDUAL    
   LAYER,ROW,COL  LAYER,ROW,COL  LAYER,ROW,COL  LAYER,ROW,COL  LAYER,ROW,COL
 ---------------------------------------------------------------------------
  1 -0.1025E-07
   (  3,  2,  3)


MODFLOW ITER.#  NEWTON-RAPHSON ITER.#   MAXIMUM NODE HEAD CHANGE
         1                   1                  0.0000000000
         1                   2                  0.0000000000
         1                   3                  0.0000000000

 NO OUTPUT CONTROL FOR STRESS PERIOD    4   TIME STEP  10
 
 
 CFPM1 CRITERION OF CONVERGENCE:     0.1000000E-05
 CFPM1 MAXIMUM NUMBER OF ITERATIONS:   100
 
 
 CFPM1 RESULTS +++++++++++++++++++++++++++++++++++++++++++++++++++++++
 
 STRESS PERIOD/TIME STEP           4          10
 
NUMBER OF NEWTON RHAPSON ITERATIONS:     3
 
 ------- RESULTS OF FLOW CALCULATION -------
 
NODE# NODE HEAD[M] MATRIX HEAD [M] EXCHANGE [M^3/D]    CADSFLOW            PFPSFLOW         DIRECT RECHARGE        QWELL         FHLQ            CAUCHY         CAUCHY LQ               QLH              QFIX
    1  20.00000      20.00027       -0.2110271E-01       0.000000           0.000000           0.000000        0.000000         0.000000         0.000000         0.000000         0.000000         0.000000    
    2  20.00    FIX  20.00000           0.0000           0.000000           0.000000           0.000000        0.000000         0.000000         0.000000         0.000000         0.000000        0.1531140E-01
    3  20.00000      20.00026       -0.6030553E-01       0.000000           0.000000           0.000000        0.000000         0.000000         0.000000         0.000000         0.000000         0.000000    
    4  20.00000      20.00040       -0.6268514E-01       0.000000           0.000000          0.3000000       -.5000000         0.000000         0.000000         0.000000         0.000000         0.000000    
    5  20.00000      20.00052       -0.4059523E-01       0.000000           0.000000           0.000000        0.000000         0.000000         0.000000         0.000000         0.000000         0.000000    
 
TUBE  B  E  FLOW          Q [M^3/D]       DIAM.[M]        LEN.[M]        RE         RESIDENCE TIME [D]
   1   1   3   LAMI.         0.02110        0.10000       10.00000        3.48201        3.72179
   2   2   3   LAMI.         0.01531        0.10000       10.00000        2.52643        5.12950
   3   3   4   TURB.         0.09672        0.10000       10.00000       15.95904        0.81204
   4   4   5   LAMI.        -0.04060        0.10000       10.00000        6.69834        1.93471
 

    BUDGET OF THE PIPE SYSTEM OF TIMESTEP   10 IN STRESS PERIOD    4
------------------------------------------------------------------------

  TOTAL SIMULATION TIME   400.000000000000      S
 
       CUMULATIVE VALUES (L**3)           RATES THIS TIME STEP (L**3/T)

            IN:                               IN:
     CONSTANT HEAD =   3.0622997          CONSTANT HEAD =  0.15311396E-01
      FHLQ BC (LQ) =   10.000000           FHLQ BC (LQ) =   0.0000000    
   MATRIX EXCHANGE =   96.937700        MATRIX EXCHANGE =  0.18468860    
     PIPE RECHARGE =   90.000000          PIPE RECHARGE =  0.30000000    
           WELL BC =   0.0000000                WELL BC =   0.0000000    
       PFP STORAGE =   0.0000000            PFP STORAGE =   0.0000000    

     CUMULATIVE IN =   200.00000               TOTAL IN =  0.50000000    

           OUT:                               OUT:
     CONSTANT HEAD =   0.0000000          CONSTANT HEAD =   0.0000000    
      FHLQ BC (LQ) =   0.0000000           FHLQ BC (LQ) =   0.0000000    
   MATRIX EXCHANGE =   0.0000000        MATRIX EXCHANGE =   0.0000000    
     PIPE RECHARGE =   0.0000000          PIPE RECHARGE =   0.0000000    
           WELL BC =   200.00000                WELL BC =  0.50000000    
       PFP STORAGE =   0.0000000            PFP STORAGE =   0.0000000    

    CUMULATIVE OUT =   200.00000              TOTAL OUT =  0.50000000    

          IN - OUT = -0.31468943E-08           IN - OUT =  0.57701621E-11
     PERCENT ERROR =  0.00                PERCENT ERROR =  0.00


 
 ------------------------NODE WATER BUDGET-----------------------
  STRESS PERIOD           4  TIME STEP          10
 TOTAL SIMULATION TIME   400.000000000000     
 
 FLOW TO THE NODE IN M^3/D
 
 NODE   FIXED HEAD     RECHARGE        QWELL  MATRIX EXCH      STORAGE      TUBE_IN     TUBE_OUT         CADS     FHLQ(LQ)       CAUCHY   CAUCHY(LQ)          QLH     IN - OUT
   1     0.0000       0.0000       0.0000      0.21103E-01   0.0000       0.0000     -0.21103E-01   0.0000       0.0000       0.0000       0.0000       0.0000     -0.61023E-10
   2    0.15311E-01   0.0000       0.0000       0.0000       0.0000       0.0000     -0.15311E-01   0.0000       0.0000       0.0000       0.0000       0.0000       0.0000    
   3     0.0000       0.0000       0.0000      0.60306E-01   0.0000      0.36414E-01 -0.96720E-01   0.0000       0.0000       0.0000       0.0000       0.0000     -0.27719E-09
   4     0.0000      0.30000     -0.50000      0.62685E-01   0.0000      0.13731       0.0000       0.0000       0.0000       0.0000       0.0000       0.0000      0.69515E-09
   5     0.0000       0.0000       0.0000      0.40595E-01   0.0000       0.0000     -0.40595E-01   0.0000       0.0000       0.0000       0.0000       0.0000     -0.35117E-09
1
  VOLUMETRIC BUDGET FOR ENTIRE MODEL AT END OF TIME STEP 10 IN STRESS PERIOD   4
  ------------------------------------------------------------------------------

     CUMULATIVE VOLUMES      L**3       RATES FOR THIS TIME STEP      L**3/T
     ------------------                 ------------------------

           IN:                                      IN:
           ---                                      ---
             STORAGE =       2.1327E-05               STORAGE =           0.0000
       CONSTANT HEAD =           5.5137         CONSTANT HEAD =           0.0000
            RECHARGE =         990.0000              RECHARGE =           3.3000
               PIPES =           0.0000                 PIPES =           0.0000

            TOTAL IN =         995.5137              TOTAL IN =           3.3000

          OUT:                                     OUT:
          ----                                     ----
             STORAGE =       5.0324E-05               STORAGE =       2.5542E-14
       CONSTANT HEAD =         898.5754         CONSTANT HEAD =           3.1153
            RECHARGE =           0.0000              RECHARGE =           0.0000
               PIPES =          96.9377                 PIPES =           0.1847

           TOTAL OUT =         995.5131             TOTAL OUT =           3.3000

            IN - OUT =       5.7643E-04              IN - OUT =       4.6733E-08

 PERCENT DISCREPANCY =           0.00     PERCENT DISCREPANCY =           0.00






          TIME SUMMARY AT END OF TIME STEP  10 IN STRESS PERIOD    4
                    SECONDS     MINUTES      HOURS       DAYS        YEARS
                    -----------------------------------------------------------
   TIME STEP LENGTH 8.64000E+05  14400.      240.00      10.000     2.73785E-02
 STRESS PERIOD TIME 8.64000E+06 1.44000E+05  2400.0      100.00     0.27379    
         TOTAL TIME 3.45600E+07 5.76000E+05  9600.0      400.00      1.0951    
1
1
                            STRESS PERIOD NO.    5, LENGTH =   100.0000    
                            -----------------------------------------------

                              NUMBER OF TIME STEPS =    10

                               MULTIPLIER FOR DELT =     1.000

                            INITIAL TIME STEP SIZE =   10.00000    



                           RECHARGE
 READING ON UNIT   19 WITH FORMAT: (4E15.6)            
 
 CFP1RCH1RP SUBROUTINE READING FROM UNIT           53
 READING INPUT USED TO PARTICIAN RECHARGE AND WELL DATA
 0.0    0.0    0.0    1.0    0.0   
 DATA FOR WELLS:
 0.0    0.0    0.0   -.50    0.0   
 
 SOLVING FOR HEAD 
MODFLOW ITER.#  NEWTON-RAPHSON ITER.#   MAXIMUM NODE HEAD CHANGE
         1                   1                  0.0000005099
         1                   2                  0.0000000162
    SWITCH NODE  2 WITH Q   0.115057     TO LQ-FLOW WITH   0.500000E-01
    CHANGED    1 CONDUIT NODES DUE TO FHLQ IN STRESS PERIOD      5
         1                   3                  0.0001037677
    CHANGED    1 CONDUIT NODES DUE TO FHLQ IN STRESS PERIOD      5
         1                   4                  0.0000000006
MODFLOW ITER.#  NEWTON-RAPHSON ITER.#   MAXIMUM NODE HEAD CHANGE
         2                   1                  0.0001041596
         2                   2                  0.0000000001
         2                   3                  0.0000000000
MODFLOW ITER.#  NEWTON-RAPHSON ITER.#   MAXIMUM NODE HEAD CHANGE
         3                   1                  0.0000061691
         3                   2                  0.0000000000
         3                   3                  0.0000000000
MODFLOW ITER.#  NEWTON-RAPHSON ITER.#   MAXIMUM NODE HEAD CHANGE
         4                   1                  0.0000003654
         4                   2                  0.0000000000
         4                   3                  0.0000000000
MODFLOW ITER.#  NEWTON-RAPHSON ITER.#   MAXIMUM NODE HEAD CHANGE
         5                   1                  0.0000000211
         5                   2                  0.0000000000
         5                   3                  0.0000000000


     5 CALLS TO PCG ROUTINE FOR TIME STEP   1 IN STRESS PERIOD    5
    26 TOTAL ITERATIONS
MODFLOW ITER.#  NEWTON-RAPHSON ITER.#   MAXIMUM NODE HEAD CHANGE
         5                   1                  0.0000000006
         5                   2                  0.0000000000
         5                   3                  0.0000000000

 NO OUTPUT CONTROL FOR STRESS PERIOD    5   TIME STEP   1
 
 
 CFPM1 CRITERION OF CONVERGENCE:     0.1000000E-05
 CFPM1 MAXIMUM NUMBER OF ITERATIONS:   100
 
 
 CFPM1 RESULTS +++++++++++++++++++++++++++++++++++++++++++++++++++++++
 
 STRESS PERIOD/TIME STEP           5           1
 
NUMBER OF NEWTON RHAPSON ITERATIONS:     3
 
 ------- RESULTS OF FLOW CALCULATION -------
 
NODE# NODE HEAD[M] MATRIX HEAD [M] EXCHANGE [M^3/D]    CADSFLOW            PFPSFLOW         DIRECT RECHARGE        QWELL         FHLQ            CAUCHY         CAUCHY LQ               QLH              QFIX
    1  19.99979      20.00017       -0.3016870E-01       0.000000           0.000000           0.000000        0.000000         0.000000         0.000000         0.000000         0.000000         0.000000    
    2  19.99979      20.00000       -0.1683942E-01       0.000000           0.000000           0.000000        0.000000        0.5000000E-01     0.000000         0.000000         0.000000         0.000000    
    3  19.99979      20.00016       -0.8757137E-01       0.000000           0.000000           0.000000        0.000000         0.000000         0.000000         0.000000         0.000000         0.000000    
    4  19.99979      20.00025       -0.7284050E-01       0.000000           0.000000          0.2000000       -.5000000         0.000000         0.000000         0.000000         0.000000         0.000000    
    5  19.99979      20.00033       -0.4258000E-01       0.000000           0.000000           0.000000        0.000000         0.000000         0.000000         0.000000         0.000000         0.000000    
 
TUBE  B  E  FLOW          Q [M^3/D]       DIAM.[M]        LEN.[M]        RE         RESIDENCE TIME [D]
   1   1   3   LAMI.         0.03017        0.10000       10.00000        4.97793        2.60335
   2   2   3   LAMI.         0.06684        0.10000       10.00000       11.02871        1.17505
   3   3   4   TURB.         0.18458        0.10000       10.00000       30.45618        0.42551
   4   4   5   LAMI.        -0.04258        0.10000       10.00000        7.02583        1.84452
 

    BUDGET OF THE PIPE SYSTEM OF TIMESTEP    1 IN STRESS PERIOD    5
------------------------------------------------------------------------

  TOTAL SIMULATION TIME   410.000000000000      S
 
       CUMULATIVE VALUES (L**3)           RATES THIS TIME STEP (L**3/T)

            IN:                               IN:
     CONSTANT HEAD =   3.0622997          CONSTANT HEAD =   0.0000000    
      FHLQ BC (LQ) =   10.500000           FHLQ BC (LQ) =  0.50000000E-01
   MATRIX EXCHANGE =   99.437700        MATRIX EXCHANGE =  0.25000000    
     PIPE RECHARGE =   92.000000          PIPE RECHARGE =  0.20000000    
           WELL BC =   0.0000000                WELL BC =   0.0000000    
       PFP STORAGE =   0.0000000            PFP STORAGE =   0.0000000    

     CUMULATIVE IN =   205.00000               TOTAL IN =  0.50000000    

           OUT:                               OUT:
     CONSTANT HEAD =   0.0000000          CONSTANT HEAD =   0.0000000    
      FHLQ BC (LQ) =   0.0000000           FHLQ BC (LQ) =   0.0000000    
   MATRIX EXCHANGE =   0.0000000        MATRIX EXCHANGE =   0.0000000    
     PIPE RECHARGE =   0.0000000          PIPE RECHARGE =   0.0000000    
           WELL BC =   205.00000                WELL BC =  0.50000000    
       PFP STORAGE =   0.0000000            PFP STORAGE =   0.0000000    

    CUMULATIVE OUT =   205.00000              TOTAL OUT =  0.50000000    

          IN - OUT = -0.31456437E-08           IN - OUT =  0.12501111E-12
     PERCENT ERROR =  0.00                PERCENT ERROR =  0.00


 
 ------------------------NODE WATER BUDGET-----------------------
  STRESS PERIOD           5  TIME STEP           1
 TOTAL SIMULATION TIME   410.000000000000     
 
 FLOW TO THE NODE IN M^3/D
 
 NODE   FIXED HEAD     RECHARGE        QWELL  MATRIX EXCH      STORAGE      TUBE_IN     TUBE_OUT         CADS     FHLQ(LQ)       CAUCHY   CAUCHY(LQ)          QLH     IN - OUT
   1     0.0000       0.0000       0.0000      0.30169E-01   0.0000       0.0000     -0.30169E-01   0.0000       0.0000       0.0000       0.0000       0.0000     -0.55319E-09
   2     0.0000       0.0000       0.0000      0.16839E-01   0.0000       0.0000     -0.66839E-01   0.0000      0.50000E-01   0.0000       0.0000       0.0000      0.64172E-10
   3     0.0000       0.0000       0.0000      0.87571E-01   0.0000      0.97008E-01 -0.18458       0.0000       0.0000       0.0000       0.0000       0.0000      0.26364E-08
   4     0.0000      0.20000     -0.50000      0.72841E-01   0.0000      0.22716       0.0000       0.0000       0.0000       0.0000       0.0000       0.0000     -0.20891E-08
   5     0.0000       0.0000       0.0000      0.42580E-01   0.0000       0.0000     -0.42580E-01   0.0000       0.0000       0.0000       0.0000       0.0000     -0.58177E-10
 
 SOLVING FOR HEAD 
MODFLOW ITER.#  NEWTON-RAPHSON ITER.#   MAXIMUM NODE HEAD CHANGE
         1                   1                  0.0000000000
         1                   2                  0.0000000000
         1                   3                  0.0000000000
     1 CALLS TO PCG ROUTINE FOR TIME STEP   2 IN STRESS PERIOD    5
     1 TOTAL ITERATIONS
MODFLOW ITER.#  NEWTON-RAPHSON ITER.#   MAXIMUM NODE HEAD CHANGE
         1                   1                  0.0000000003
         1                   2                  0.0000000000
         1                   3                  0.0000000000

 NO OUTPUT CONTROL FOR STRESS PERIOD    5   TIME STEP   2
 
 
 CFPM1 CRITERION OF CONVERGENCE:     0.1000000E-05
 CFPM1 MAXIMUM NUMBER OF ITERATIONS:   100
 
 
 CFPM1 RESULTS +++++++++++++++++++++++++++++++++++++++++++++++++++++++
 
 STRESS PERIOD/TIME STEP           5           2
 
NUMBER OF NEWTON RHAPSON ITERATIONS:     3
 
 ------- RESULTS OF FLOW CALCULATION -------
 
NODE# NODE HEAD[M] MATRIX HEAD [M] EXCHANGE [M^3/D]    CADSFLOW            PFPSFLOW         DIRECT RECHARGE        QWELL         FHLQ            CAUCHY         CAUCHY LQ               QLH              QFIX
    1  19.99979      20.00017       -0.3016868E-01       0.000000           0.000000           0.000000        0.000000         0.000000         0.000000         0.000000         0.000000         0.000000    
    2  19.99979      20.00000       -0.1683945E-01       0.000000           0.000000           0.000000        0.000000        0.5000000E-01     0.000000         0.000000         0.000000         0.000000    
    3  19.99979      20.00016       -0.8757137E-01       0.000000           0.000000           0.000000        0.000000         0.000000         0.000000         0.000000         0.000000         0.000000    
    4  19.99979      20.00025       -0.7284052E-01       0.000000           0.000000          0.2000000       -.5000000         0.000000         0.000000         0.000000         0.000000         0.000000    
    5  19.99979      20.00033       -0.4257998E-01       0.000000           0.000000           0.000000        0.000000         0.000000         0.000000         0.000000         0.000000         0.000000    
 
TUBE  B  E  FLOW          Q [M^3/D]       DIAM.[M]        LEN.[M]        RE         RESIDENCE TIME [D]
   1   1   3   LAMI.         0.03017        0.10000       10.00000        4.97793        2.60336
   2   2   3   LAMI.         0.06684        0.10000       10.00000       11.02871        1.17505
   3   3   4   TURB.         0.18458        0.10000       10.00000       30.45618        0.42551
   4   4   5   LAMI.        -0.04258        0.10000       10.00000        7.02583        1.84452
 

    BUDGET OF THE PIPE SYSTEM OF TIMESTEP    2 IN STRESS PERIOD    5
------------------------------------------------------------------------

  TOTAL SIMULATION TIME   420.000000000000      S
 
       CUMULATIVE VALUES (L**3)           RATES THIS TIME STEP (L**3/T)

            IN:                               IN:
     CONSTANT HEAD =   3.0622997          CONSTANT HEAD =   0.0000000    
      FHLQ BC (LQ) =   11.000000           FHLQ BC (LQ) =  0.50000000E-01
   MATRIX EXCHANGE =   101.93770        MATRIX EXCHANGE =  0.25000000    
     PIPE RECHARGE =   94.000000          PIPE RECHARGE =  0.20000000    
           WELL BC =   0.0000000                WELL BC =   0.0000000    
       PFP STORAGE =   0.0000000            PFP STORAGE =   0.0000000    

     CUMULATIVE IN =   210.00000               TOTAL IN =  0.50000000    

           OUT:                               OUT:
     CONSTANT HEAD =   0.0000000          CONSTANT HEAD =   0.0000000    
      FHLQ BC (LQ) =   0.0000000           FHLQ BC (LQ) =   0.0000000    
   MATRIX EXCHANGE =   0.0000000        MATRIX EXCHANGE =   0.0000000    
     PIPE RECHARGE =   0.0000000          PIPE RECHARGE =   0.0000000    
           WELL BC =   210.00000                WELL BC =  0.50000000    
       PFP STORAGE =   0.0000000            PFP STORAGE =   0.0000000    

    CUMULATIVE OUT =   210.00000              TOTAL OUT =  0.50000000    

          IN - OUT = -0.31471785E-08           IN - OUT = -0.15404344E-12
     PERCENT ERROR =  0.00                PERCENT ERROR =  0.00


 
 ------------------------NODE WATER BUDGET-----------------------
  STRESS PERIOD           5  TIME STEP           2
 TOTAL SIMULATION TIME   420.000000000000     
 
 FLOW TO THE NODE IN M^3/D
 
 NODE   FIXED HEAD     RECHARGE        QWELL  MATRIX EXCH      STORAGE      TUBE_IN     TUBE_OUT         CADS     FHLQ(LQ)       CAUCHY   CAUCHY(LQ)          QLH     IN - OUT
   1     0.0000       0.0000       0.0000      0.30169E-01   0.0000       0.0000     -0.30169E-01   0.0000       0.0000       0.0000       0.0000       0.0000      0.29942E-09
   2     0.0000       0.0000       0.0000      0.16839E-01   0.0000       0.0000     -0.66839E-01   0.0000      0.50000E-01   0.0000       0.0000       0.0000      0.21729E-09
   3     0.0000       0.0000       0.0000      0.87571E-01   0.0000      0.97008E-01 -0.18458       0.0000       0.0000       0.0000       0.0000       0.0000      0.12518E-10
   4     0.0000      0.20000     -0.50000      0.72841E-01   0.0000      0.22716       0.0000       0.0000       0.0000       0.0000       0.0000       0.0000     -0.12265E-08
   5     0.0000       0.0000       0.0000      0.42580E-01   0.0000       0.0000     -0.42580E-01   0.0000       0.0000       0.0000       0.0000       0.0000      0.69712E-09
 
 SOLVING FOR HEAD 
MODFLOW ITER.#  NEWTON-RAPHSON ITER.#   MAXIMUM NODE HEAD CHANGE
         1                   1                  0.0000000000
         1                   2                  0.0000000000
         1                   3                  0.0000000000
     1 CALLS TO PCG ROUTINE FOR TIME STEP   3 IN STRESS PERIOD    5
     1 TOTAL ITERATIONS
MODFLOW ITER.#  NEWTON-RAPHSON ITER.#   MAXIMUM NODE HEAD CHANGE
         1                   1                  0.0000000004
         1                   2                  0.0000000000
         1                   3                  0.0000000000

 NO OUTPUT CONTROL FOR STRESS PERIOD    5   TIME STEP   3
 
 
 CFPM1 CRITERION OF CONVERGENCE:     0.1000000E-05
 CFPM1 MAXIMUM NUMBER OF ITERATIONS:   100
 
 
 CFPM1 RESULTS +++++++++++++++++++++++++++++++++++++++++++++++++++++++
 
 STRESS PERIOD/TIME STEP           5           3
 
NUMBER OF NEWTON RHAPSON ITERATIONS:     3
 
 ------- RESULTS OF FLOW CALCULATION -------
 
NODE# NODE HEAD[M] MATRIX HEAD [M] EXCHANGE [M^3/D]    CADSFLOW            PFPSFLOW         DIRECT RECHARGE        QWELL         FHLQ            CAUCHY         CAUCHY LQ               QLH              QFIX
    1  19.99979      20.00017       -0.3016868E-01       0.000000           0.000000           0.000000        0.000000         0.000000         0.000000         0.000000         0.000000         0.000000    
    2  19.99979      20.00000       -0.1683948E-01       0.000000           0.000000           0.000000        0.000000        0.5000000E-01     0.000000         0.000000         0.000000         0.000000    
    3  19.99979      20.00016       -0.8757138E-01       0.000000           0.000000           0.000000        0.000000         0.000000         0.000000         0.000000         0.000000         0.000000    
    4  19.99979      20.00025       -0.7284048E-01       0.000000           0.000000          0.2000000       -.5000000         0.000000         0.000000         0.000000         0.000000         0.000000    
    5  19.99979      20.00033       -0.4257998E-01       0.000000           0.000000           0.000000        0.000000         0.000000         0.000000         0.000000         0.000000         0.000000    
 
TUBE  B  E  FLOW          Q [M^3/D]       DIAM.[M]        LEN.[M]        RE         RESIDENCE TIME [D]
   1   1   3   LAMI.         0.03017        0.10000       10.00000        4.97793        2.60336
   2   2   3   LAMI.         0.06684        0.10000       10.00000       11.02872        1.17505
   3   3   4   TURB.         0.18458        0.10000       10.00000       30.45619        0.42551
   4   4   5   LAMI.        -0.04258        0.10000       10.00000        7.02583        1.84452
 

    BUDGET OF THE PIPE SYSTEM OF TIMESTEP    3 IN STRESS PERIOD    5
------------------------------------------------------------------------

  TOTAL SIMULATION TIME   430.000000000000      S
 
       CUMULATIVE VALUES (L**3)           RATES THIS TIME STEP (L**3/T)

            IN:                               IN:
     CONSTANT HEAD =   3.0622997          CONSTANT HEAD =   0.0000000    
      FHLQ BC (LQ) =   11.500000           FHLQ BC (LQ) =  0.50000000E-01
   MATRIX EXCHANGE =   104.43770        MATRIX EXCHANGE =  0.25000000    
     PIPE RECHARGE =   96.000000          PIPE RECHARGE =  0.20000000    
           WELL BC =   0.0000000                WELL BC =   0.0000000    
       PFP STORAGE =   0.0000000            PFP STORAGE =   0.0000000    

     CUMULATIVE IN =   215.00000               TOTAL IN =  0.50000000    

           OUT:                               OUT:
     CONSTANT HEAD =   0.0000000          CONSTANT HEAD =   0.0000000    
      FHLQ BC (LQ) =   0.0000000           FHLQ BC (LQ) =   0.0000000    
   MATRIX EXCHANGE =   0.0000000        MATRIX EXCHANGE =   0.0000000    
     PIPE RECHARGE =   0.0000000          PIPE RECHARGE =   0.0000000    
           WELL BC =   215.00000                WELL BC =  0.50000000    
       PFP STORAGE =   0.0000000            PFP STORAGE =   0.0000000    

    CUMULATIVE OUT =   215.00000              TOTAL OUT =  0.50000000    

          IN - OUT = -0.31431284E-08           IN - OUT =  0.40401016E-12
     PERCENT ERROR =  0.00                PERCENT ERROR =  0.00


 
 ------------------------NODE WATER BUDGET-----------------------
  STRESS PERIOD           5  TIME STEP           3
 TOTAL SIMULATION TIME   430.000000000000     
 
 FLOW TO THE NODE IN M^3/D
 
 NODE   FIXED HEAD     RECHARGE        QWELL  MATRIX EXCH      STORAGE      TUBE_IN     TUBE_OUT         CADS     FHLQ(LQ)       CAUCHY   CAUCHY(LQ)          QLH     IN - OUT
   1     0.0000       0.0000       0.0000      0.30169E-01   0.0000       0.0000     -0.30169E-01   0.0000       0.0000       0.0000       0.0000       0.0000     -0.20367E-09
   2     0.0000       0.0000       0.0000      0.16839E-01   0.0000       0.0000     -0.66839E-01   0.0000      0.50000E-01   0.0000       0.0000       0.0000      0.13005E-10
   3     0.0000       0.0000       0.0000      0.87571E-01   0.0000      0.97008E-01 -0.18458       0.0000       0.0000       0.0000       0.0000       0.0000      0.12451E-08
   4     0.0000      0.20000     -0.50000      0.72840E-01   0.0000      0.22716       0.0000       0.0000       0.0000       0.0000       0.0000       0.0000     -0.11663E-08
   5     0.0000       0.0000       0.0000      0.42580E-01   0.0000       0.0000     -0.42580E-01   0.0000       0.0000       0.0000       0.0000       0.0000      0.11230E-09
 
 SOLVING FOR HEAD 
MODFLOW ITER.#  NEWTON-RAPHSON ITER.#   MAXIMUM NODE HEAD CHANGE
         1                   1                  0.0000000000
         1                   2                  0.0000000000
         1                   3                  0.0000000000
     1 CALLS TO PCG ROUTINE FOR TIME STEP   4 IN STRESS PERIOD    5
     1 TOTAL ITERATIONS
MODFLOW ITER.#  NEWTON-RAPHSON ITER.#   MAXIMUM NODE HEAD CHANGE
         1                   1                  0.0000000002
         1                   2                  0.0000000000
         1                   3                  0.0000000000

 NO OUTPUT CONTROL FOR STRESS PERIOD    5   TIME STEP   4
 
 
 CFPM1 CRITERION OF CONVERGENCE:     0.1000000E-05
 CFPM1 MAXIMUM NUMBER OF ITERATIONS:   100
 
 
 CFPM1 RESULTS +++++++++++++++++++++++++++++++++++++++++++++++++++++++
 
 STRESS PERIOD/TIME STEP           5           4
 
NUMBER OF NEWTON RHAPSON ITERATIONS:     3
 
 ------- RESULTS OF FLOW CALCULATION -------
 
NODE# NODE HEAD[M] MATRIX HEAD [M] EXCHANGE [M^3/D]    CADSFLOW            PFPSFLOW         DIRECT RECHARGE        QWELL         FHLQ            CAUCHY         CAUCHY LQ               QLH              QFIX
    1  19.99979      20.00017       -0.3016868E-01       0.000000           0.000000           0.000000        0.000000         0.000000         0.000000         0.000000         0.000000         0.000000    
    2  19.99979      20.00000       -0.1683950E-01       0.000000           0.000000           0.000000        0.000000        0.5000000E-01     0.000000         0.000000         0.000000         0.000000    
    3  19.99979      20.00016       -0.8757138E-01       0.000000           0.000000           0.000000        0.000000         0.000000         0.000000         0.000000         0.000000         0.000000    
    4  19.99979      20.00025       -0.7284048E-01       0.000000           0.000000          0.2000000       -.5000000         0.000000         0.000000         0.000000         0.000000         0.000000    
    5  19.99979      20.00033       -0.4257996E-01       0.000000           0.000000           0.000000        0.000000         0.000000         0.000000         0.000000         0.000000         0.000000    
 
TUBE  B  E  FLOW          Q [M^3/D]       DIAM.[M]        LEN.[M]        RE         RESIDENCE TIME [D]
   1   1   3   LAMI.         0.03017        0.10000       10.00000        4.97793        2.60336
   2   2   3   LAMI.         0.06684        0.10000       10.00000       11.02872        1.17505
   3   3   4   TURB.         0.18458        0.10000       10.00000       30.45619        0.42551
   4   4   5   LAMI.        -0.04258        0.10000       10.00000        7.02582        1.84453
 

    BUDGET OF THE PIPE SYSTEM OF TIMESTEP    4 IN STRESS PERIOD    5
------------------------------------------------------------------------

  TOTAL SIMULATION TIME   440.000000000000      S
 
       CUMULATIVE VALUES (L**3)           RATES THIS TIME STEP (L**3/T)

            IN:                               IN:
     CONSTANT HEAD =   3.0622997          CONSTANT HEAD =   0.0000000    
      FHLQ BC (LQ) =   12.000000           FHLQ BC (LQ) =  0.50000000E-01
   MATRIX EXCHANGE =   106.93770        MATRIX EXCHANGE =  0.25000000    
     PIPE RECHARGE =   98.000000          PIPE RECHARGE =  0.20000000    
           WELL BC =   0.0000000                WELL BC =   0.0000000    
       PFP STORAGE =   0.0000000            PFP STORAGE =   0.0000000    

     CUMULATIVE IN =   220.00000               TOTAL IN =  0.50000000    

           OUT:                               OUT:
     CONSTANT HEAD =   0.0000000          CONSTANT HEAD =   0.0000000    
      FHLQ BC (LQ) =   0.0000000           FHLQ BC (LQ) =   0.0000000    
   MATRIX EXCHANGE =   0.0000000        MATRIX EXCHANGE =   0.0000000    
     PIPE RECHARGE =   0.0000000          PIPE RECHARGE =   0.0000000    
           WELL BC =   220.00000                WELL BC =  0.50000000    
       PFP STORAGE =   0.0000000            PFP STORAGE =   0.0000000    

    CUMULATIVE OUT =   220.00000              TOTAL OUT =  0.50000000    

          IN - OUT = -0.31362930E-08           IN - OUT =  0.68300920E-12
     PERCENT ERROR =  0.00                PERCENT ERROR =  0.00


 
 ------------------------NODE WATER BUDGET-----------------------
  STRESS PERIOD           5  TIME STEP           4
 TOTAL SIMULATION TIME   440.000000000000     
 
 FLOW TO THE NODE IN M^3/D
 
 NODE   FIXED HEAD     RECHARGE        QWELL  MATRIX EXCH      STORAGE      TUBE_IN     TUBE_OUT         CADS     FHLQ(LQ)       CAUCHY   CAUCHY(LQ)          QLH     IN - OUT
   1     0.0000       0.0000       0.0000      0.30169E-01   0.0000       0.0000     -0.30169E-01   0.0000       0.0000       0.0000       0.0000       0.0000      0.22558E-09
   2     0.0000       0.0000       0.0000      0.16839E-01   0.0000       0.0000     -0.66839E-01   0.0000      0.50000E-01   0.0000       0.0000       0.0000      0.13030E-10
   3     0.0000       0.0000       0.0000      0.87571E-01   0.0000      0.97008E-01 -0.18458       0.0000       0.0000       0.0000       0.0000       0.0000     -0.13230E-08
   4     0.0000      0.20000     -0.50000      0.72840E-01   0.0000      0.22716       0.0000       0.0000       0.0000       0.0000       0.0000       0.0000      0.11407E-08
   5     0.0000       0.0000       0.0000      0.42580E-01   0.0000       0.0000     -0.42580E-01   0.0000       0.0000       0.0000       0.0000       0.0000     -0.55644E-10
 
 SOLVING FOR HEAD 
MODFLOW ITER.#  NEWTON-RAPHSON ITER.#   MAXIMUM NODE HEAD CHANGE
         1                   1                  0.0000000000
         1                   2                  0.0000000000
         1                   3                  0.0000000000
     1 CALLS TO PCG ROUTINE FOR TIME STEP   5 IN STRESS PERIOD    5
     1 TOTAL ITERATIONS

 MAXIMUM HEAD CHANGE FOR EACH ITERATION (1 INDICATES THE FIRST INNER ITERATION):

    HEAD CHANGE    HEAD CHANGE    HEAD CHANGE    HEAD CHANGE    HEAD CHANGE 
   LAYER,ROW,COL  LAYER,ROW,COL  LAYER,ROW,COL  LAYER,ROW,COL  LAYER,ROW,COL
 ---------------------------------------------------------------------------
  1  0.3302E-09
   (  2,  1,  4)

 MAXIMUM RESIDUAL FOR EACH ITERATION (1 INDICATES THE FIRST INNER ITERATION):

    RESIDUAL       RESIDUAL       RESIDUAL       RESIDUAL       RESIDUAL    
   LAYER,ROW,COL  LAYER,ROW,COL  LAYER,ROW,COL  LAYER,ROW,COL  LAYER,ROW,COL
 ---------------------------------------------------------------------------
  1  0.3328E-06
   (  3,  3,  2)


MODFLOW ITER.#  NEWTON-RAPHSON ITER.#   MAXIMUM NODE HEAD CHANGE
         1                   1                  0.0000000002
         1                   2                  0.0000000000
         1                   3                  0.0000000000

 NO OUTPUT CONTROL FOR STRESS PERIOD    5   TIME STEP   5
 
 
 CFPM1 CRITERION OF CONVERGENCE:     0.1000000E-05
 CFPM1 MAXIMUM NUMBER OF ITERATIONS:   100
 
 
 CFPM1 RESULTS +++++++++++++++++++++++++++++++++++++++++++++++++++++++
 
 STRESS PERIOD/TIME STEP           5           5
 
NUMBER OF NEWTON RHAPSON ITERATIONS:     3
 
 ------- RESULTS OF FLOW CALCULATION -------
 
NODE# NODE HEAD[M] MATRIX HEAD [M] EXCHANGE [M^3/D]    CADSFLOW            PFPSFLOW         DIRECT RECHARGE        QWELL         FHLQ            CAUCHY         CAUCHY LQ               QLH              QFIX
    1  19.99979      20.00017       -0.3016868E-01       0.000000           0.000000           0.000000        0.000000         0.000000         0.000000         0.000000         0.000000         0.000000    
    2  19.99979      20.00000       -0.1683951E-01       0.000000           0.000000           0.000000        0.000000        0.5000000E-01     0.000000         0.000000         0.000000         0.000000    
    3  19.99979      20.00016       -0.8757138E-01       0.000000           0.000000           0.000000        0.000000         0.000000         0.000000         0.000000         0.000000         0.000000    
    4  19.99979      20.00025       -0.7284047E-01       0.000000           0.000000          0.2000000       -.5000000         0.000000         0.000000         0.000000         0.000000         0.000000    
    5  19.99979      20.00033       -0.4257996E-01       0.000000           0.000000           0.000000        0.000000         0.000000         0.000000         0.000000         0.000000         0.000000    
 
TUBE  B  E  FLOW          Q [M^3/D]       DIAM.[M]        LEN.[M]        RE         RESIDENCE TIME [D]
   1   1   3   LAMI.         0.03017        0.10000       10.00000        4.97793        2.60336
   2   2   3   LAMI.         0.06684        0.10000       10.00000       11.02872        1.17505
   3   3   4   TURB.         0.18458        0.10000       10.00000       30.45620        0.42551
   4   4   5   LAMI.        -0.04258        0.10000       10.00000        7.02582        1.84453
 

    BUDGET OF THE PIPE SYSTEM OF TIMESTEP    5 IN STRESS PERIOD    5
------------------------------------------------------------------------

  TOTAL SIMULATION TIME   450.000000000000      S
 
       CUMULATIVE VALUES (L**3)           RATES THIS TIME STEP (L**3/T)

            IN:                               IN:
     CONSTANT HEAD =   3.0622997          CONSTANT HEAD =   0.0000000    
      FHLQ BC (LQ) =   12.500000           FHLQ BC (LQ) =  0.50000000E-01
   MATRIX EXCHANGE =   109.43770        MATRIX EXCHANGE =  0.25000000    
     PIPE RECHARGE =   100.00000          PIPE RECHARGE =  0.20000000    
           WELL BC =   0.0000000                WELL BC =   0.0000000    
       PFP STORAGE =   0.0000000            PFP STORAGE =   0.0000000    

     CUMULATIVE IN =   225.00000               TOTAL IN =  0.50000000    

           OUT:                               OUT:
     CONSTANT HEAD =   0.0000000          CONSTANT HEAD =   0.0000000    
      FHLQ BC (LQ) =   0.0000000           FHLQ BC (LQ) =   0.0000000    
   MATRIX EXCHANGE =   0.0000000        MATRIX EXCHANGE =   0.0000000    
     PIPE RECHARGE =   0.0000000          PIPE RECHARGE =   0.0000000    
           WELL BC =   225.00000                WELL BC =  0.50000000    
       PFP STORAGE =   0.0000000            PFP STORAGE =   0.0000000    

    CUMULATIVE OUT =   225.00000              TOTAL OUT =  0.50000000    

          IN - OUT = -0.31378420E-08           IN - OUT = -0.15404344E-12
     PERCENT ERROR =  0.00                PERCENT ERROR =  0.00


 
 ------------------------NODE WATER BUDGET-----------------------
  STRESS PERIOD           5  TIME STEP           5
 TOTAL SIMULATION TIME   450.000000000000     
 
 FLOW TO THE NODE IN M^3/D
 
 NODE   FIXED HEAD     RECHARGE        QWELL  MATRIX EXCH      STORAGE      TUBE_IN     TUBE_OUT         CADS     FHLQ(LQ)       CAUCHY   CAUCHY(LQ)          QLH     IN - OUT
   1     0.0000       0.0000       0.0000      0.30169E-01   0.0000       0.0000     -0.30169E-01   0.0000       0.0000       0.0000       0.0000       0.0000     -0.37541E-10
   2     0.0000       0.0000       0.0000      0.16840E-01   0.0000       0.0000     -0.66840E-01   0.0000      0.50000E-01   0.0000       0.0000       0.0000     -0.30147E-09
   3     0.0000       0.0000       0.0000      0.87571E-01   0.0000      0.97008E-01 -0.18458       0.0000       0.0000       0.0000       0.0000       0.0000      0.14800E-08
   4     0.0000      0.20000     -0.50000      0.72840E-01   0.0000      0.22716       0.0000       0.0000       0.0000       0.0000       0.0000       0.0000     -0.18269E-08
   5     0.0000       0.0000       0.0000      0.42580E-01   0.0000       0.0000     -0.42580E-01   0.0000       0.0000       0.0000       0.0000       0.0000      0.68574E-09
 
 SOLVING FOR HEAD 
MODFLOW ITER.#  NEWTON-RAPHSON ITER.#   MAXIMUM NODE HEAD CHANGE
         1                   1                  0.0000000000
         1                   2                  0.0000000000
         1                   3                  0.0000000000
     1 CALLS TO PCG ROUTINE FOR TIME STEP   6 IN STRESS PERIOD    5
     1 TOTAL ITERATIONS
MODFLOW ITER.#  NEWTON-RAPHSON ITER.#   MAXIMUM NODE HEAD CHANGE
         1                   1                  0.0000000001
         1                   2                  0.0000000000
         1                   3                  0.0000000000

 NO OUTPUT CONTROL FOR STRESS PERIOD    5   TIME STEP   6
 
 
 CFPM1 CRITERION OF CONVERGENCE:     0.1000000E-05
 CFPM1 MAXIMUM NUMBER OF ITERATIONS:   100
 
 
 CFPM1 RESULTS +++++++++++++++++++++++++++++++++++++++++++++++++++++++
 
 STRESS PERIOD/TIME STEP           5           6
 
NUMBER OF NEWTON RHAPSON ITERATIONS:     3
 
 ------- RESULTS OF FLOW CALCULATION -------
 
NODE# NODE HEAD[M] MATRIX HEAD [M] EXCHANGE [M^3/D]    CADSFLOW            PFPSFLOW         DIRECT RECHARGE        QWELL         FHLQ            CAUCHY         CAUCHY LQ               QLH              QFIX
    1  19.99979      20.00017       -0.3016868E-01       0.000000           0.000000           0.000000        0.000000         0.000000         0.000000         0.000000         0.000000         0.000000    
    2  19.99979      20.00000       -0.1683952E-01       0.000000           0.000000           0.000000        0.000000        0.5000000E-01     0.000000         0.000000         0.000000         0.000000    
    3  19.99979      20.00016       -0.8757137E-01       0.000000           0.000000           0.000000        0.000000         0.000000         0.000000         0.000000         0.000000         0.000000    
    4  19.99979      20.00025       -0.7284047E-01       0.000000           0.000000          0.2000000       -.5000000         0.000000         0.000000         0.000000         0.000000         0.000000    
    5  19.99979      20.00033       -0.4257996E-01       0.000000           0.000000           0.000000        0.000000         0.000000         0.000000         0.000000         0.000000         0.000000    
 
TUBE  B  E  FLOW          Q [M^3/D]       DIAM.[M]        LEN.[M]        RE         RESIDENCE TIME [D]
   1   1   3   LAMI.         0.03017        0.10000       10.00000        4.97793        2.60336
   2   2   3   LAMI.         0.06684        0.10000       10.00000       11.02873        1.17505
   3   3   4   TURB.         0.18458        0.10000       10.00000       30.45620        0.42551
   4   4   5   LAMI.        -0.04258        0.10000       10.00000        7.02582        1.84453
 

    BUDGET OF THE PIPE SYSTEM OF TIMESTEP    6 IN STRESS PERIOD    5
------------------------------------------------------------------------

  TOTAL SIMULATION TIME   460.000000000000      S
 
       CUMULATIVE VALUES (L**3)           RATES THIS TIME STEP (L**3/T)

            IN:                               IN:
     CONSTANT HEAD =   3.0622997          CONSTANT HEAD =   0.0000000    
      FHLQ BC (LQ) =   13.000000           FHLQ BC (LQ) =  0.50000000E-01
   MATRIX EXCHANGE =   111.93770        MATRIX EXCHANGE =  0.25000000    
     PIPE RECHARGE =   102.00000          PIPE RECHARGE =  0.20000000    
           WELL BC =   0.0000000                WELL BC =   0.0000000    
       PFP STORAGE =   0.0000000            PFP STORAGE =   0.0000000    

     CUMULATIVE IN =   230.00000               TOTAL IN =  0.50000000    

           OUT:                               OUT:
     CONSTANT HEAD =   0.0000000          CONSTANT HEAD =   0.0000000    
      FHLQ BC (LQ) =   0.0000000           FHLQ BC (LQ) =   0.0000000    
   MATRIX EXCHANGE =   0.0000000        MATRIX EXCHANGE =   0.0000000    
     PIPE RECHARGE =   0.0000000          PIPE RECHARGE =   0.0000000    
           WELL BC =   230.00000                WELL BC =  0.50000000    
       PFP STORAGE =   0.0000000            PFP STORAGE =   0.0000000    

    CUMULATIVE OUT =   230.00000              TOTAL OUT =  0.50000000    

          IN - OUT = -0.31365914E-08           IN - OUT =  0.12501111E-12
     PERCENT ERROR =  0.00                PERCENT ERROR =  0.00


 
 ------------------------NODE WATER BUDGET-----------------------
  STRESS PERIOD           5  TIME STEP           6
 TOTAL SIMULATION TIME   460.000000000000     
 
 FLOW TO THE NODE IN M^3/D
 
 NODE   FIXED HEAD     RECHARGE        QWELL  MATRIX EXCH      STORAGE      TUBE_IN     TUBE_OUT         CADS     FHLQ(LQ)       CAUCHY   CAUCHY(LQ)          QLH     IN - OUT
   1     0.0000       0.0000       0.0000      0.30169E-01   0.0000       0.0000     -0.30169E-01   0.0000       0.0000       0.0000       0.0000       0.0000     -0.33077E-10
   2     0.0000       0.0000       0.0000      0.16840E-01   0.0000       0.0000     -0.66840E-01   0.0000      0.50000E-01   0.0000       0.0000       0.0000      0.35465E-09
   3     0.0000       0.0000       0.0000      0.87571E-01   0.0000      0.97008E-01 -0.18458       0.0000       0.0000       0.0000       0.0000       0.0000     -0.18141E-08
   4     0.0000      0.20000     -0.50000      0.72840E-01   0.0000      0.22716       0.0000       0.0000       0.0000       0.0000       0.0000       0.0000      0.17335E-08
   5     0.0000       0.0000       0.0000      0.42580E-01   0.0000       0.0000     -0.42580E-01   0.0000       0.0000       0.0000       0.0000       0.0000     -0.24087E-09
 
 SOLVING FOR HEAD 
MODFLOW ITER.#  NEWTON-RAPHSON ITER.#   MAXIMUM NODE HEAD CHANGE
         1                   1                  0.0000000000
         1                   2                  0.0000000000
         1                   3                  0.0000000000
     1 CALLS TO PCG ROUTINE FOR TIME STEP   7 IN STRESS PERIOD    5
     1 TOTAL ITERATIONS
MODFLOW ITER.#  NEWTON-RAPHSON ITER.#   MAXIMUM NODE HEAD CHANGE
         1                   1                  0.0000000001
         1                   2                  0.0000000000
         1                   3                  0.0000000000

 NO OUTPUT CONTROL FOR STRESS PERIOD    5   TIME STEP   7
 
 
 CFPM1 CRITERION OF CONVERGENCE:     0.1000000E-05
 CFPM1 MAXIMUM NUMBER OF ITERATIONS:   100
 
 
 CFPM1 RESULTS +++++++++++++++++++++++++++++++++++++++++++++++++++++++
 
 STRESS PERIOD/TIME STEP           5           7
 
NUMBER OF NEWTON RHAPSON ITERATIONS:     3
 
 ------- RESULTS OF FLOW CALCULATION -------
 
NODE# NODE HEAD[M] MATRIX HEAD [M] EXCHANGE [M^3/D]    CADSFLOW            PFPSFLOW         DIRECT RECHARGE        QWELL         FHLQ            CAUCHY         CAUCHY LQ               QLH              QFIX
    1  19.99979      20.00017       -0.3016868E-01       0.000000           0.000000           0.000000        0.000000         0.000000         0.000000         0.000000         0.000000         0.000000    
    2  19.99979      20.00000       -0.1683952E-01       0.000000           0.000000           0.000000        0.000000        0.5000000E-01     0.000000         0.000000         0.000000         0.000000    
    3  19.99979      20.00016       -0.8757138E-01       0.000000           0.000000           0.000000        0.000000         0.000000         0.000000         0.000000         0.000000         0.000000    
    4  19.99979      20.00025       -0.7284046E-01       0.000000           0.000000          0.2000000       -.5000000         0.000000         0.000000         0.000000         0.000000         0.000000    
    5  19.99979      20.00033       -0.4257996E-01       0.000000           0.000000           0.000000        0.000000         0.000000         0.000000         0.000000         0.000000         0.000000    
 
TUBE  B  E  FLOW          Q [M^3/D]       DIAM.[M]        LEN.[M]        RE         RESIDENCE TIME [D]
   1   1   3   LAMI.         0.03017        0.10000       10.00000        4.97793        2.60336
   2   2   3   LAMI.         0.06684        0.10000       10.00000       11.02873        1.17505
   3   3   4   TURB.         0.18458        0.10000       10.00000       30.45620        0.42551
   4   4   5   LAMI.        -0.04258        0.10000       10.00000        7.02582        1.84453
 

    BUDGET OF THE PIPE SYSTEM OF TIMESTEP    7 IN STRESS PERIOD    5
------------------------------------------------------------------------

  TOTAL SIMULATION TIME   470.000000000000      S
 
       CUMULATIVE VALUES (L**3)           RATES THIS TIME STEP (L**3/T)

            IN:                               IN:
     CONSTANT HEAD =   3.0622997          CONSTANT HEAD =   0.0000000    
      FHLQ BC (LQ) =   13.500000           FHLQ BC (LQ) =  0.50000000E-01
   MATRIX EXCHANGE =   114.43770        MATRIX EXCHANGE =  0.25000000    
     PIPE RECHARGE =   104.00000          PIPE RECHARGE =  0.20000000    
           WELL BC =   0.0000000                WELL BC =   0.0000000    
       PFP STORAGE =   0.0000000            PFP STORAGE =   0.0000000    

     CUMULATIVE IN =   235.00000               TOTAL IN =  0.50000000    

           OUT:                               OUT:
     CONSTANT HEAD =   0.0000000          CONSTANT HEAD =   0.0000000    
      FHLQ BC (LQ) =   0.0000000           FHLQ BC (LQ) =   0.0000000    
   MATRIX EXCHANGE =   0.0000000        MATRIX EXCHANGE =   0.0000000    
     PIPE RECHARGE =   0.0000000          PIPE RECHARGE =   0.0000000    
           WELL BC =   235.00000                WELL BC =  0.50000000    
       PFP STORAGE =   0.0000000            PFP STORAGE =   0.0000000    

    CUMULATIVE OUT =   235.00000              TOTAL OUT =  0.50000000    

          IN - OUT = -0.31381120E-08           IN - OUT = -0.15398793E-12
     PERCENT ERROR =  0.00                PERCENT ERROR =  0.00


 
 ------------------------NODE WATER BUDGET-----------------------
  STRESS PERIOD           5  TIME STEP           7
 TOTAL SIMULATION TIME   470.000000000000     
 
 FLOW TO THE NODE IN M^3/D
 
 NODE   FIXED HEAD     RECHARGE        QWELL  MATRIX EXCH      STORAGE      TUBE_IN     TUBE_OUT         CADS     FHLQ(LQ)       CAUCHY   CAUCHY(LQ)          QLH     IN - OUT
   1     0.0000       0.0000       0.0000      0.30169E-01   0.0000       0.0000     -0.30169E-01   0.0000       0.0000       0.0000       0.0000       0.0000     -0.14832E-09
   2     0.0000       0.0000       0.0000      0.16840E-01   0.0000       0.0000     -0.66840E-01   0.0000      0.50000E-01   0.0000       0.0000       0.0000      0.60991E-09
   3     0.0000       0.0000       0.0000      0.87571E-01   0.0000      0.97008E-01 -0.18458       0.0000       0.0000       0.0000       0.0000       0.0000     -0.25915E-08
   4     0.0000      0.20000     -0.50000      0.72840E-01   0.0000      0.22716       0.0000       0.0000       0.0000       0.0000       0.0000       0.0000      0.26641E-08
   5     0.0000       0.0000       0.0000      0.42580E-01   0.0000       0.0000     -0.42580E-01   0.0000       0.0000       0.0000       0.0000       0.0000     -0.53433E-09
 
 SOLVING FOR HEAD 
MODFLOW ITER.#  NEWTON-RAPHSON ITER.#   MAXIMUM NODE HEAD CHANGE
         1                   1                  0.0000000000
         1                   2                  0.0000000000
         1                   3                  0.0000000000
     1 CALLS TO PCG ROUTINE FOR TIME STEP   8 IN STRESS PERIOD    5
     1 TOTAL ITERATIONS
MODFLOW ITER.#  NEWTON-RAPHSON ITER.#   MAXIMUM NODE HEAD CHANGE
         1                   1                  0.0000000000
         1                   2                  0.0000000000
         1                   3                  0.0000000000

 NO OUTPUT CONTROL FOR STRESS PERIOD    5   TIME STEP   8
 
 
 CFPM1 CRITERION OF CONVERGENCE:     0.1000000E-05
 CFPM1 MAXIMUM NUMBER OF ITERATIONS:   100
 
 
 CFPM1 RESULTS +++++++++++++++++++++++++++++++++++++++++++++++++++++++
 
 STRESS PERIOD/TIME STEP           5           8
 
NUMBER OF NEWTON RHAPSON ITERATIONS:     3
 
 ------- RESULTS OF FLOW CALCULATION -------
 
NODE# NODE HEAD[M] MATRIX HEAD [M] EXCHANGE [M^3/D]    CADSFLOW            PFPSFLOW         DIRECT RECHARGE        QWELL         FHLQ            CAUCHY         CAUCHY LQ               QLH              QFIX
    1  19.99979      20.00017       -0.3016868E-01       0.000000           0.000000           0.000000        0.000000         0.000000         0.000000         0.000000         0.000000         0.000000    
    2  19.99979      20.00000       -0.1683952E-01       0.000000           0.000000           0.000000        0.000000        0.5000000E-01     0.000000         0.000000         0.000000         0.000000    
    3  19.99979      20.00016       -0.8757137E-01       0.000000           0.000000           0.000000        0.000000         0.000000         0.000000         0.000000         0.000000         0.000000    
    4  19.99979      20.00025       -0.7284046E-01       0.000000           0.000000          0.2000000       -.5000000         0.000000         0.000000         0.000000         0.000000         0.000000    
    5  19.99979      20.00033       -0.4257995E-01       0.000000           0.000000           0.000000        0.000000         0.000000         0.000000         0.000000         0.000000         0.000000    
 
TUBE  B  E  FLOW          Q [M^3/D]       DIAM.[M]        LEN.[M]        RE         RESIDENCE TIME [D]
   1   1   3   LAMI.         0.03017        0.10000       10.00000        4.97793        2.60336
   2   2   3   LAMI.         0.06684        0.10000       10.00000       11.02873        1.17505
   3   3   4   TURB.         0.18458        0.10000       10.00000       30.45620        0.42551
   4   4   5   LAMI.        -0.04258        0.10000       10.00000        7.02582        1.84453
 

    BUDGET OF THE PIPE SYSTEM OF TIMESTEP    8 IN STRESS PERIOD    5
------------------------------------------------------------------------

  TOTAL SIMULATION TIME   480.000000000000      S
 
       CUMULATIVE VALUES (L**3)           RATES THIS TIME STEP (L**3/T)

            IN:                               IN:
     CONSTANT HEAD =   3.0622997          CONSTANT HEAD =   0.0000000    
      FHLQ BC (LQ) =   14.000000           FHLQ BC (LQ) =  0.50000000E-01
   MATRIX EXCHANGE =   116.93770        MATRIX EXCHANGE =  0.25000000    
     PIPE RECHARGE =   106.00000          PIPE RECHARGE =  0.20000000    
           WELL BC =   0.0000000                WELL BC =   0.0000000    
       PFP STORAGE =   0.0000000            PFP STORAGE =   0.0000000    

     CUMULATIVE IN =   240.00000               TOTAL IN =  0.50000000    

           OUT:                               OUT:
     CONSTANT HEAD =   0.0000000          CONSTANT HEAD =   0.0000000    
      FHLQ BC (LQ) =   0.0000000           FHLQ BC (LQ) =   0.0000000    
   MATRIX EXCHANGE =   0.0000000        MATRIX EXCHANGE =   0.0000000    
     PIPE RECHARGE =   0.0000000          PIPE RECHARGE =   0.0000000    
           WELL BC =   240.00000                WELL BC =  0.50000000    
       PFP STORAGE =   0.0000000            PFP STORAGE =   0.0000000    

    CUMULATIVE OUT =   240.00000              TOTAL OUT =  0.50000000    

          IN - OUT = -0.31424463E-08           IN - OUT = -0.43307025E-12
     PERCENT ERROR =  0.00                PERCENT ERROR =  0.00


 
 ------------------------NODE WATER BUDGET-----------------------
  STRESS PERIOD           5  TIME STEP           8
 TOTAL SIMULATION TIME   480.000000000000     
 
 FLOW TO THE NODE IN M^3/D
 
 NODE   FIXED HEAD     RECHARGE        QWELL  MATRIX EXCH      STORAGE      TUBE_IN     TUBE_OUT         CADS     FHLQ(LQ)       CAUCHY   CAUCHY(LQ)          QLH     IN - OUT
   1     0.0000       0.0000       0.0000      0.30169E-01   0.0000       0.0000     -0.30169E-01   0.0000       0.0000       0.0000       0.0000       0.0000      0.74477E-09
   2     0.0000       0.0000       0.0000      0.16840E-01   0.0000       0.0000     -0.66840E-01   0.0000      0.50000E-01   0.0000       0.0000       0.0000      0.35159E-09
   3     0.0000       0.0000       0.0000      0.87571E-01   0.0000      0.97008E-01 -0.18458       0.0000       0.0000       0.0000       0.0000       0.0000     -0.15404E-08
   4     0.0000      0.20000     -0.50000      0.72840E-01   0.0000      0.22716       0.0000       0.0000       0.0000       0.0000       0.0000       0.0000      0.13307E-09
   5     0.0000       0.0000       0.0000      0.42580E-01   0.0000       0.0000     -0.42580E-01   0.0000       0.0000       0.0000       0.0000       0.0000      0.31051E-09
 
 SOLVING FOR HEAD 
MODFLOW ITER.#  NEWTON-RAPHSON ITER.#   MAXIMUM NODE HEAD CHANGE
         1                   1                  0.0000000000
         1                   2                  0.0000000000
         1                   3                  0.0000000000
     1 CALLS TO PCG ROUTINE FOR TIME STEP   9 IN STRESS PERIOD    5
     1 TOTAL ITERATIONS
MODFLOW ITER.#  NEWTON-RAPHSON ITER.#   MAXIMUM NODE HEAD CHANGE
         1                   1                  0.0000000000
         1                   2                  0.0000000000
         1                   3                  0.0000000000

 NO OUTPUT CONTROL FOR STRESS PERIOD    5   TIME STEP   9
 
 
 CFPM1 CRITERION OF CONVERGENCE:     0.1000000E-05
 CFPM1 MAXIMUM NUMBER OF ITERATIONS:   100
 
 
 CFPM1 RESULTS +++++++++++++++++++++++++++++++++++++++++++++++++++++++
 
 STRESS PERIOD/TIME STEP           5           9
 
NUMBER OF NEWTON RHAPSON ITERATIONS:     3
 
 ------- RESULTS OF FLOW CALCULATION -------
 
NODE# NODE HEAD[M] MATRIX HEAD [M] EXCHANGE [M^3/D]    CADSFLOW            PFPSFLOW         DIRECT RECHARGE        QWELL         FHLQ            CAUCHY         CAUCHY LQ               QLH              QFIX
    1  19.99979      20.00017       -0.3016868E-01       0.000000           0.000000           0.000000        0.000000         0.000000         0.000000         0.000000         0.000000         0.000000    
    2  19.99979      20.00000       -0.1683953E-01       0.000000           0.000000           0.000000        0.000000        0.5000000E-01     0.000000         0.000000         0.000000         0.000000    
    3  19.99979      20.00016       -0.8757137E-01       0.000000           0.000000           0.000000        0.000000         0.000000         0.000000         0.000000         0.000000         0.000000    
    4  19.99979      20.00025       -0.7284046E-01       0.000000           0.000000          0.2000000       -.5000000         0.000000         0.000000         0.000000         0.000000         0.000000    
    5  19.99979      20.00033       -0.4257996E-01       0.000000           0.000000           0.000000        0.000000         0.000000         0.000000         0.000000         0.000000         0.000000    
 
TUBE  B  E  FLOW          Q [M^3/D]       DIAM.[M]        LEN.[M]        RE         RESIDENCE TIME [D]
   1   1   3   LAMI.         0.03017        0.10000       10.00000        4.97793        2.60336
   2   2   3   LAMI.         0.06684        0.10000       10.00000       11.02873        1.17505
   3   3   4   TURB.         0.18458        0.10000       10.00000       30.45620        0.42551
   4   4   5   LAMI.        -0.04258        0.10000       10.00000        7.02582        1.84453
 

    BUDGET OF THE PIPE SYSTEM OF TIMESTEP    9 IN STRESS PERIOD    5
------------------------------------------------------------------------

  TOTAL SIMULATION TIME   490.000000000000      S
 
       CUMULATIVE VALUES (L**3)           RATES THIS TIME STEP (L**3/T)

            IN:                               IN:
     CONSTANT HEAD =   3.0622997          CONSTANT HEAD =   0.0000000    
      FHLQ BC (LQ) =   14.500000           FHLQ BC (LQ) =  0.50000000E-01
   MATRIX EXCHANGE =   119.43770        MATRIX EXCHANGE =  0.25000000    
     PIPE RECHARGE =   108.00000          PIPE RECHARGE =  0.20000000    
           WELL BC =   0.0000000                WELL BC =   0.0000000    
       PFP STORAGE =   0.0000000            PFP STORAGE =   0.0000000    

     CUMULATIVE IN =   245.00000               TOTAL IN =  0.50000000    

           OUT:                               OUT:
     CONSTANT HEAD =   0.0000000          CONSTANT HEAD =   0.0000000    
      FHLQ BC (LQ) =   0.0000000           FHLQ BC (LQ) =   0.0000000    
   MATRIX EXCHANGE =   0.0000000        MATRIX EXCHANGE =   0.0000000    
     PIPE RECHARGE =   0.0000000          PIPE RECHARGE =   0.0000000    
           WELL BC =   245.00000                WELL BC =  0.50000000    
       PFP STORAGE =   0.0000000            PFP STORAGE =   0.0000000    

    CUMULATIVE OUT =   245.00000              TOTAL OUT =  0.50000000    

          IN - OUT = -0.31384104E-08           IN - OUT =  0.40401016E-12
     PERCENT ERROR =  0.00                PERCENT ERROR =  0.00


 
 ------------------------NODE WATER BUDGET-----------------------
  STRESS PERIOD           5  TIME STEP           9
 TOTAL SIMULATION TIME   490.000000000000     
 
 FLOW TO THE NODE IN M^3/D
 
 NODE   FIXED HEAD     RECHARGE        QWELL  MATRIX EXCH      STORAGE      TUBE_IN     TUBE_OUT         CADS     FHLQ(LQ)       CAUCHY   CAUCHY(LQ)          QLH     IN - OUT
   1     0.0000       0.0000       0.0000      0.30169E-01   0.0000       0.0000     -0.30169E-01   0.0000       0.0000       0.0000       0.0000       0.0000     -0.12990E-09
   2     0.0000       0.0000       0.0000      0.16840E-01   0.0000       0.0000     -0.66840E-01   0.0000      0.50000E-01   0.0000       0.0000       0.0000     -0.15356E-10
   3     0.0000       0.0000       0.0000      0.87571E-01   0.0000      0.97008E-01 -0.18458       0.0000       0.0000       0.0000       0.0000       0.0000      0.20255E-08
   4     0.0000      0.20000     -0.50000      0.72840E-01   0.0000      0.22716       0.0000       0.0000       0.0000       0.0000       0.0000       0.0000     -0.16135E-08
   5     0.0000       0.0000       0.0000      0.42580E-01   0.0000       0.0000     -0.42580E-01   0.0000       0.0000       0.0000       0.0000       0.0000     -0.26643E-09
 
 SOLVING FOR HEAD 
MODFLOW ITER.#  NEWTON-RAPHSON ITER.#   MAXIMUM NODE HEAD CHANGE
         1                   1                  0.0000000000
         1                   2                  0.0000000000
         1                   3                  0.0000000000
     1 CALLS TO PCG ROUTINE FOR TIME STEP  10 IN STRESS PERIOD    5
     1 TOTAL ITERATIONS

 MAXIMUM HEAD CHANGE FOR EACH ITERATION (1 INDICATES THE FIRST INNER ITERATION):

    HEAD CHANGE    HEAD CHANGE    HEAD CHANGE    HEAD CHANGE    HEAD CHANGE 
   LAYER,ROW,COL  LAYER,ROW,COL  LAYER,ROW,COL  LAYER,ROW,COL  LAYER,ROW,COL
 ---------------------------------------------------------------------------
  1 -0.7567E-10
   (  3,  1,  4)

 MAXIMUM RESIDUAL FOR EACH ITERATION (1 INDICATES THE FIRST INNER ITERATION):

    RESIDUAL       RESIDUAL       RESIDUAL       RESIDUAL       RESIDUAL    
   LAYER,ROW,COL  LAYER,ROW,COL  LAYER,ROW,COL  LAYER,ROW,COL  LAYER,ROW,COL
 ---------------------------------------------------------------------------
  1  0.5068E-07
   (  3,  2,  3)


MODFLOW ITER.#  NEWTON-RAPHSON ITER.#   MAXIMUM NODE HEAD CHANGE
         1                   1                  0.0000000000
         1                   2                  0.0000000000
         1                   3                  0.0000000000

 NO OUTPUT CONTROL FOR STRESS PERIOD    5   TIME STEP  10
 
 
 CFPM1 CRITERION OF CONVERGENCE:     0.1000000E-05
 CFPM1 MAXIMUM NUMBER OF ITERATIONS:   100
 
 
 CFPM1 RESULTS +++++++++++++++++++++++++++++++++++++++++++++++++++++++
 
 STRESS PERIOD/TIME STEP           5          10
 
NUMBER OF NEWTON RHAPSON ITERATIONS:     3
 
 ------- RESULTS OF FLOW CALCULATION -------
 
NODE# NODE HEAD[M] MATRIX HEAD [M] EXCHANGE [M^3/D]    CADSFLOW            PFPSFLOW         DIRECT RECHARGE        QWELL         FHLQ            CAUCHY         CAUCHY LQ               QLH              QFIX
    1  19.99979      20.00017       -0.3016868E-01       0.000000           0.000000           0.000000        0.000000         0.000000         0.000000         0.000000         0.000000         0.000000    
    2  19.99979      20.00000       -0.1683953E-01       0.000000           0.000000           0.000000        0.000000        0.5000000E-01     0.000000         0.000000         0.000000         0.000000    
    3  19.99979      20.00016       -0.8757137E-01       0.000000           0.000000           0.000000        0.000000         0.000000         0.000000         0.000000         0.000000         0.000000    
    4  19.99979      20.00025       -0.7284046E-01       0.000000           0.000000          0.2000000       -.5000000         0.000000         0.000000         0.000000         0.000000         0.000000    
    5  19.99979      20.00033       -0.4257995E-01       0.000000           0.000000           0.000000        0.000000         0.000000         0.000000         0.000000         0.000000         0.000000    
 
TUBE  B  E  FLOW          Q [M^3/D]       DIAM.[M]        LEN.[M]        RE         RESIDENCE TIME [D]
   1   1   3   LAMI.         0.03017        0.10000       10.00000        4.97793        2.60336
   2   2   3   LAMI.         0.06684        0.10000       10.00000       11.02873        1.17505
   3   3   4   TURB.         0.18458        0.10000       10.00000       30.45620        0.42551
   4   4   5   LAMI.        -0.04258        0.10000       10.00000        7.02582        1.84453
 

    BUDGET OF THE PIPE SYSTEM OF TIMESTEP   10 IN STRESS PERIOD    5
------------------------------------------------------------------------

  TOTAL SIMULATION TIME   500.000000000000      S
 
       CUMULATIVE VALUES (L**3)           RATES THIS TIME STEP (L**3/T)

            IN:                               IN:
     CONSTANT HEAD =   3.0622997          CONSTANT HEAD =   0.0000000    
      FHLQ BC (LQ) =   15.000000           FHLQ BC (LQ) =  0.50000000E-01
   MATRIX EXCHANGE =   121.93770        MATRIX EXCHANGE =  0.25000000    
     PIPE RECHARGE =   110.00000          PIPE RECHARGE =  0.20000000    
           WELL BC =   0.0000000                WELL BC =   0.0000000    
       PFP STORAGE =   0.0000000            PFP STORAGE =   0.0000000    

     CUMULATIVE IN =   250.00000               TOTAL IN =  0.50000000    

           OUT:                               OUT:
     CONSTANT HEAD =   0.0000000          CONSTANT HEAD =   0.0000000    
      FHLQ BC (LQ) =   0.0000000           FHLQ BC (LQ) =   0.0000000    
   MATRIX EXCHANGE =   0.0000000        MATRIX EXCHANGE =   0.0000000    
     PIPE RECHARGE =   0.0000000          PIPE RECHARGE =   0.0000000    
           WELL BC =   250.00000                WELL BC =  0.50000000    
       PFP STORAGE =   0.0000000            PFP STORAGE =   0.0000000    

    CUMULATIVE OUT =   250.00000              TOTAL OUT =  0.50000000    

          IN - OUT = -0.31427447E-08           IN - OUT = -0.43304249E-12
     PERCENT ERROR =  0.00                PERCENT ERROR =  0.00


 
 ------------------------NODE WATER BUDGET-----------------------
  STRESS PERIOD           5  TIME STEP          10
 TOTAL SIMULATION TIME   500.000000000000     
 
 FLOW TO THE NODE IN M^3/D
 
 NODE   FIXED HEAD     RECHARGE        QWELL  MATRIX EXCH      STORAGE      TUBE_IN     TUBE_OUT         CADS     FHLQ(LQ)       CAUCHY   CAUCHY(LQ)          QLH     IN - OUT
   1     0.0000       0.0000       0.0000      0.30169E-01   0.0000       0.0000     -0.30169E-01   0.0000       0.0000       0.0000       0.0000       0.0000     -0.94742E-10
   2     0.0000       0.0000       0.0000      0.16840E-01   0.0000       0.0000     -0.66840E-01   0.0000      0.50000E-01   0.0000       0.0000       0.0000      0.42029E-09
   3     0.0000       0.0000       0.0000      0.87571E-01   0.0000      0.97008E-01 -0.18458       0.0000       0.0000       0.0000       0.0000       0.0000     -0.95851E-09
   4     0.0000      0.20000     -0.50000      0.72840E-01   0.0000      0.22716       0.0000       0.0000       0.0000       0.0000       0.0000       0.0000      0.25820E-09
   5     0.0000       0.0000       0.0000      0.42580E-01   0.0000       0.0000     -0.42580E-01   0.0000       0.0000       0.0000       0.0000       0.0000      0.37433E-09
1
  VOLUMETRIC BUDGET FOR ENTIRE MODEL AT END OF TIME STEP 10 IN STRESS PERIOD   5
  ------------------------------------------------------------------------------

     CUMULATIVE VOLUMES      L**3       RATES FOR THIS TIME STEP      L**3/T
     ------------------                 ------------------------

           IN:                                      IN:
           ---                                      ---
             STORAGE =       3.1870E-05               STORAGE =       1.9460E-13
       CONSTANT HEAD =           7.1976         CONSTANT HEAD =       1.6840E-02
            RECHARGE =        1210.0000              RECHARGE =           2.2000
               PIPES =           0.0000                 PIPES =           0.0000

            TOTAL IN =        1217.1976              TOTAL IN =           2.2168

          OUT:                                     OUT:
          ----                                     ----
             STORAGE =       5.0324E-05               STORAGE =           0.0000
       CONSTANT HEAD =        1095.2599         CONSTANT HEAD =           1.9668
            RECHARGE =           0.0000              RECHARGE =           0.0000
               PIPES =         121.9377                 PIPES =           0.2500

           TOTAL OUT =        1217.1976             TOTAL OUT =           2.2168

            IN - OUT =       2.8661E-05              IN - OUT =      -3.5239E-07

 PERCENT DISCREPANCY =           0.00     PERCENT DISCREPANCY =           0.00






          TIME SUMMARY AT END OF TIME STEP  10 IN STRESS PERIOD    5
                    SECONDS     MINUTES      HOURS       DAYS        YEARS
                    -----------------------------------------------------------
   TIME STEP LENGTH 8.64000E+05  14400.      240.00      10.000     2.73785E-02
 STRESS PERIOD TIME 8.64000E+06 1.44000E+05  2400.0      100.00     0.27379    
         TOTAL TIME 4.32000E+07 7.20000E+05  12000.      500.00      1.3689    
1

 RUN END DATE AND TIME (YYYY/MM/DD HH:MM:SS): 2022/12/01  9:09:11
 ELAPSED RUN TIME:  0.085 SECONDS

