                                  MODFLOW-2005     
      U.S. GEOLOGICAL SURVEY MODULAR FINITE-DIFFERENCE GROUND-WATER FLOW MODEL
              VERSION 1.9.25 06/04/2013 CFPv2 HTM/STM/UMT-LNK/CADS

           THIS IS A RESEARCH VERSION OF CFP MODE 1 FOR TEST PURPOSES
                  WITHOUT ANY WARRANTY REGARDING CORRECTNESS

           CONTACT: THOMAS.REIMANN@TU-DRESDEN.DE / BSHOEMAK@USGS.GOV


 LIST FILE: CFPy_example_05.list
                         UNIT    2

 OPENING CFPy_example_05.dis
 FILE TYPE:DIS   UNIT   11   STATUS:OLD    
 FORMAT:FORMATTED              ACCESS:SEQUENTIAL          

 OPENING CFPy_example_05.bas
 FILE TYPE:BAS6   UNIT   13   STATUS:OLD    
 FORMAT:FORMATTED              ACCESS:SEQUENTIAL          

 OPENING CFPy_example_05.lpf
 FILE TYPE:LPF   UNIT   15   STATUS:OLD    
 FORMAT:FORMATTED              ACCESS:SEQUENTIAL          

 OPENING CFPy_example_05.oc
 FILE TYPE:OC   UNIT   14   STATUS:OLD    
 FORMAT:FORMATTED              ACCESS:SEQUENTIAL          

 OPENING CFPy_example_05.pcg
 FILE TYPE:PCG   UNIT   27   STATUS:OLD    
 FORMAT:FORMATTED              ACCESS:SEQUENTIAL          

 OPENING CFPy_example_05.rch
 FILE TYPE:RCH   UNIT   19   STATUS:OLD    
 FORMAT:FORMATTED              ACCESS:SEQUENTIAL          

 OPENING CFPy_example_05.hds
 FILE TYPE:DATA(BINARY)   UNIT   51   STATUS:REPLACE
 FORMAT:BINARY                 ACCESS:SEQUENTIAL          

 OPENING CFPy_example_05.cbc
 FILE TYPE:DATA(BINARY)   UNIT   50   STATUS:REPLACE
 FORMAT:BINARY                 ACCESS:SEQUENTIAL          

 OPENING CFPy_example_05.coc
 FILE TYPE:COC   UNIT   54   STATUS:OLD    
 FORMAT:FORMATTED              ACCESS:SEQUENTIAL          

 OPENING CFPy_example_05.cfp
 FILE TYPE:CFP   UNIT   52   STATUS:OLD    
 FORMAT:FORMATTED              ACCESS:SEQUENTIAL          

 OPENING CFPy_example_05.crch
 FILE TYPE:CRCH   UNIT   53   STATUS:OLD    
 FORMAT:FORMATTED              ACCESS:SEQUENTIAL          

 BAS -- BASIC PACKAGE, VERSION 7, 5/2/2005 INPUT READ FROM UNIT   13

 DISCRETIZATION INPUT DATA READ FROM UNIT   11
 # DIS package for MODFLOW-2005 generated by Flopy 3.3.5
    3 LAYERS         4 ROWS         4 COLUMNS
    5 STRESS PERIOD(S) IN SIMULATION
 MODEL TIME UNIT IS DAYS
 MODEL LENGTH UNIT IS METERS
  Confining bed flag for each layer:
   0   0   0

                     DELR =   10.0000    

                     DELC =   10.0000    



           TOP ELEVATION OF LAYER 1
 READING ON UNIT   11 WITH FORMAT: (4E15.6)            



             MODEL LAYER BOTTOM EL. FOR LAYER   1
 READING ON UNIT   11 WITH FORMAT: (4E15.6)            



             MODEL LAYER BOTTOM EL. FOR LAYER   2
 READING ON UNIT   11 WITH FORMAT: (4E15.6)            



             MODEL LAYER BOTTOM EL. FOR LAYER   3
 READING ON UNIT   11 WITH FORMAT: (4E15.6)            


 STRESS PERIOD     LENGTH       TIME STEPS     MULTIPLIER FOR DELT    SS FLAG
 ----------------------------------------------------------------------------
        1         100.0000         10                    1.000         TR
        2         100.0000         10                    1.000         TR
        3         100.0000         10                    1.000         TR
        4         100.0000         10                    1.000         TR
        5         100.0000         10                    1.000         TR

 TRANSIENT SIMULATION



 
 # BAS6 package for MODFLOW-2005 generated by Flopy 3.3.5                        
 THE FREE FORMAT OPTION HAS BEEN SELECTED



                     BOUNDARY ARRAY FOR LAYER   1
 READING ON UNIT   13 WITH FORMAT: (4I10)              



                     BOUNDARY ARRAY FOR LAYER   2
 READING ON UNIT   13 WITH FORMAT: (4I10)              



                     BOUNDARY ARRAY FOR LAYER   3
 READING ON UNIT   13 WITH FORMAT: (4I10)              

 AQUIFER HEAD WILL BE SET TO  -999.99     AT ALL NO-FLOW NODES (IBOUND=0).



                       INITIAL HEAD FOR LAYER   1
 READING ON UNIT   13 WITH FORMAT: (4E15.6)            



                       INITIAL HEAD FOR LAYER   2
 READING ON UNIT   13 WITH FORMAT: (4E15.6)            



                       INITIAL HEAD FOR LAYER   3
 READING ON UNIT   13 WITH FORMAT: (4E15.6)            
 # OC package for MODFLOW-2005 generated by Flopy 3.3.5

 OUTPUT CONTROL IS SPECIFIED ONLY AT TIME STEPS FOR WHICH OUTPUT IS DESIRED
 COMPACT CELL-BY-CELL BUDGET FILES WILL BE WRITTEN
 AUXILIARY DATA WILL BE SAVED IN CELL-BY-CELL BUDGET FILES
 HEAD PRINT FORMAT CODE IS   0    DRAWDOWN PRINT FORMAT CODE IS   0
 HEADS WILL BE SAVED ON UNIT   51    DRAWDOWNS WILL BE SAVED ON UNIT    0

 LPF -- LAYER-PROPERTY FLOW PACKAGE, VERSION 7, 5/2/2005
         INPUT READ FROM UNIT   15
 # LPF package for MODFLOW-2005 generated by Flopy 3.3.5
 HEAD AT CELLS THAT CONVERT TO DRY= -1.00000E+30
 No named parameters

   LAYER FLAGS:
 LAYER       LAYTYP        LAYAVG         CHANI        LAYVKA        LAYWET
 ---------------------------------------------------------------------------
    1             1             0     1.000E+00             0             0
    2             1             0     1.000E+00             0             0
    3             1             0     1.000E+00             0             0

   INTERPRETATION OF LAYER FLAGS:
                        INTERBLOCK     HORIZONTAL    DATA IN
         LAYER TYPE   TRANSMISSIVITY   ANISOTROPY   ARRAY VKA   WETTABILITY
 LAYER      (LAYTYP)      (LAYAVG)       (CHANI)      (LAYVKA)      (LAYWET)
 ---------------------------------------------------------------------------
    1   CONVERTIBLE      HARMONIC     1.000E+00    VERTICAL K  NON-WETTABLE
    2   CONVERTIBLE      HARMONIC     1.000E+00    VERTICAL K  NON-WETTABLE
    3   CONVERTIBLE      HARMONIC     1.000E+00    VERTICAL K  NON-WETTABLE

 WETTING CAPABILITY IS NOT ACTIVE IN ANY LAYER

    HYD. COND. ALONG ROWS =   1000.00     FOR LAYER   1

      VERTICAL HYD. COND. =   200.000     FOR LAYER   1

         SPECIFIC STORAGE =  2.000000E-05 FOR LAYER   1

           SPECIFIC YIELD =  0.200000     FOR LAYER   1

    HYD. COND. ALONG ROWS =   1000.00     FOR LAYER   2

      VERTICAL HYD. COND. =   200.000     FOR LAYER   2

         SPECIFIC STORAGE =  2.000000E-05 FOR LAYER   2

           SPECIFIC YIELD =  0.200000     FOR LAYER   2

    HYD. COND. ALONG ROWS =   1000.00     FOR LAYER   3

      VERTICAL HYD. COND. =   200.000     FOR LAYER   3

         SPECIFIC STORAGE =  2.000000E-05 FOR LAYER   3

           SPECIFIC YIELD =  0.200000     FOR LAYER   3

 RCH -- RECHARGE PACKAGE, VERSION 7, 5/2/2005 INPUT READ FROM UNIT   19
 # RCH package for MODFLOW-2005 generated by Flopy 3.3.5
 No named parameters
 OPTION 1 -- RECHARGE TO TOP LAYER
 CELL-BY-CELL FLOWS WILL BE SAVED ON UNIT   50


     0 Recharge parameters

 PCG -- CONJUGATE-GRADIENT SOLUTION PACKAGE, VERSION 7, 5/2/2005
 # PCG package for MODFLOW-2005 generated by Flopy 3.3.5
 MAXIMUM OF     20 CALLS OF SOLUTION ROUTINE
 MAXIMUM OF     10 INTERNAL ITERATIONS PER CALL TO SOLUTION ROUTINE
 MATRIX PRECONDITIONING TYPE :    1
 IHCOFADD option -- When an active cell is surrounded by dry cells, convert
 the cell to dry only if storage and head-dependent boundary flow are 0.



                                    SOLUTION BY THE CONJUGATE-GRADIENT METHOD
                                   -------------------------------------------
                    MAXIMUM NUMBER OF CALLS TO PCG ROUTINE =       20
                        MAXIMUM ITERATIONS PER CALL TO PCG =       10
                               MATRIX PRECONDITIONING TYPE =        1
        RELAXATION FACTOR (ONLY USED WITH PRECOND. TYPE 1) =    0.97000E+00
 PARAMETER OF POLYNOMIAL PRECOND. = 2 (2) OR IS CALCULATED :        2
                         HEAD CHANGE CRITERION FOR CLOSURE =    0.10000E-04
                     RESIDUAL CHANGE CRITERION FOR CLOSURE =    0.10000E-04
            PCG HEAD AND RESIDUAL CHANGE PRINTOUT INTERVAL =        5
     PRINTING FROM SOLVER IS LIMITED(1) OR SUPPRESSED (>1) =        0
                            STEADY-STATE DAMPING PARAMETER =    0.10000E+01
                               TRANSIENT DAMPING PARAMETER =    0.10000E+01
 
 CFP1AR READING FROM UNIT          52
 ---------------------------------
 CFP MODE 1 IS ACTIVE (PIPES) 
 ---------------------------------
 KEYWORD FBC ACTIVE
    NUMBER OF NODES IS     5
    NUMBER OF TUBES IS     4
    NUMBER OF LAYERS IS    3
 GRAVITATIONAL CONSTANT (G) COMPUTED 
 WATER TEMPERATURE, IN DEGREES CELCIUS, IS    25.0000000000000     
  KINEMATIC VISCOSITY [L^2/T]=  7.716459760582384E-002
 
  NBR-ARRAY: 
         1      2     2     1      3     0     0     0     0     0      1     0     0     0     0     0
         2      1     3     1      3     0     0     0     0     0      2     0     0     0     0     0
         3      2     3     1      1     4     2     0     0     0      1     3     2     0     0     0
         4      3     3     1      5     3     0     0     0     0      4     3     0     0     0     0
         5      4     3     1      4     0     0     0     0     0      4     0     0     0     0     0
 NBR ARRAY READ
  NODE ELEVATIONS:
           1   4.50000000000000     
           2   4.50000000000000     
           3   4.50000000000000     
           4   4.50000000000000     
           5   4.50000000000000     
 FINISHED READING NEWTON RAPHSON ITERATION CONTROLS
 READING NODE AND TUBE DATA
 NO_P  DIAMETER  TORTUOSITY  RHEIGHT  LCRITREY_P TCRITREY_P
   1.     0.100        1.00   0.0100       10.00      20.00
   2.     0.100        1.00   0.0100       10.00      20.00
   3.     0.100        1.00   0.0100       10.00      20.00
   4.     0.100        1.00   0.0100       10.00      20.00
 READING NODE BOUNDARY CONDITIONS (FIXED HEADS, IBOUNDS, AND FBCs)
  NODE  HEAD AND/OR IBOUND
    1   -1.0000
    2   20.0000 FHLQ, LQ:  0.0500
    3   -1.0000
    4   -1.0000 WELL
    5   -1.0000
    NUMBER OF FHLQ BCS IS     1
    NUMBER OF WELL BCS IS     1; THEREOF TD WELLS:    0
    NUMBER OF CAUCHY BCS IS   0; THEREOF TD BCS:    0
    NUMBER OF LH BCS IS       0
 SURFACE-AREA DEPENDENT EXCHANGE IS ACTIVE
 READING EXCHANGE COEFFICIENTS
 NODE I  K_EXCHANGE(I)
   1    5.000    
   2    5.000    
   3    5.000    
   4    5.000    
   5    5.000    
 READING CONDUIT OUTPUT CONTROL FROM UNIT          54
 NNODES             5
 TSNO               1
 TSNO               2
 TSNO               3
 TSNO               4
 TSNO               5
 NOTSNO             1
 NTUBES             4
 TSTU               1
 TSTU               2
 TSTU               3
 TSTU               4
 NOTSTU             1
 PROCESSING AND CHECKING CONDUIT-NETWORK
 TESTING THE CONDUIT NETWORK:
  NO ERRORS DETECTED           `:) 
  NO WARNINGS             `:)
 BEGINNING CFPM1 SUBROUTINE DETERM_TUB
 BEGINNING CFPM1 SUBROUTINE GEOCALC THAT CALCULATES XYZ COORDINATES OF NODES
 TOP-ARRAY / BOT-ARRAY:
   5.00000000000000             4.00000000000000     
   4.00000000000000             3.00000000000000     
   3.00000000000000             2.00000000000000     
  NODE   COLUMN    ROW    LAY      X         Y            Z      
      1      2      2      1     15.0000     15.0000     4.50000    
      2      1      3      1     5.00000     25.0000     4.50000    
      3      2      3      1     15.0000     25.0000     4.50000    
      4      3      3      1     25.0000     25.0000     4.50000    
      5      4      3      1     35.0000     25.0000     4.50000    
 
 BEGINNING CFPM1 LENGTH_CAL SUBROUTINE
 BEGINNING CFPM1 ROUGH_CAL SUBROUTINE
1
                            STRESS PERIOD NO.    1, LENGTH =   100.0000    
                            -----------------------------------------------

                              NUMBER OF TIME STEPS =    10

                               MULTIPLIER FOR DELT =     1.000

                            INITIAL TIME STEP SIZE =   10.00000    



                           RECHARGE
 READING ON UNIT   19 WITH FORMAT: (4E15.6)            
 
 CFP1RCH1RP SUBROUTINE READING FROM UNIT           53
 READING INPUT USED TO PARTICIAN RECHARGE AND WELL DATA
 0.0    0.0    0.0    1.0    0.0   
 DATA FOR WELLS:
 0.0    0.0    0.0   -.50    0.0   
 COMPUTE NODE LENGTH
 NODE I     L_NODE (I)
   1        5.000
   2        5.000
   3       15.000
   4       10.000
   5        5.000
 
 SOLVING FOR HEAD 
  LAMINAR PRECALCULATION
TUBE   2 SWITCH LAM -> TURB: LAM_RE (   32.89    ) >= TCRITREY:   20.00     TURB_RE:   99.83    
TUBE   3 SWITCH LAM -> TURB: LAM_RE (   32.93    ) >= TCRITREY:   20.00     TURB_RE:   99.92    
MODFLOW ITER.#  NEWTON-RAPHSON ITER.#   MAXIMUM NODE HEAD CHANGE
         1                   1                  0.0000018102
    SWITCH NODE  2 WITH Q   0.605030     TO LQ-FLOW WITH   0.500000E-01
    CHANGED    1 CONDUIT NODES DUE TO FHLQ IN STRESS PERIOD      1
         1                   2                  0.0002389307
    CHANGED    1 CONDUIT NODES DUE TO FHLQ IN STRESS PERIOD      1
         1                   3                  0.0000000230
MODFLOW ITER.#  NEWTON-RAPHSON ITER.#   MAXIMUM NODE HEAD CHANGE
         2                   1                  0.0002798419
    RESET NODE    2 FROM LQ TO FH WITH HEAD   20.0000    
    CHANGED    1 CONDUIT NODES DUE TO FHLQ IN STRESS PERIOD      1
TUBE   2 SWITCH TURB -> LAM: TURBREY (   7.502    ) <= LCRITREY:   10.00     LAM_RE:   1.003    
         2                   2                  0.0000410445
    CHANGED    1 CONDUIT NODES DUE TO FHLQ IN STRESS PERIOD      1
         2                   3                  0.0000000909
MODFLOW ITER.#  NEWTON-RAPHSON ITER.#   MAXIMUM NODE HEAD CHANGE
         3                   1                  0.0000000482
         3                   2                  0.0000000000
         3                   3                  0.0000000000


     3 CALLS TO PCG ROUTINE FOR TIME STEP   1 IN STRESS PERIOD    1
    19 TOTAL ITERATIONS
MODFLOW ITER.#  NEWTON-RAPHSON ITER.#   MAXIMUM NODE HEAD CHANGE
         3                   1                  0.0000000000
         3                   2                  0.0000000000
         3                   3                  0.0000000000

 OUTPUT CONTROL FOR STRESS PERIOD    1   TIME STEP   1
    SAVE HEAD FOR ALL LAYERS
 
 
 CFPM1 CRITERION OF CONVERGENCE:     0.1000000E-05
 CFPM1 MAXIMUM NUMBER OF ITERATIONS:   100
 
 
 CFPM1 RESULTS +++++++++++++++++++++++++++++++++++++++++++++++++++++++
 
 STRESS PERIOD/TIME STEP           1           1
 
NUMBER OF NEWTON RHAPSON ITERATIONS:     3
 
 ------- RESULTS OF FLOW CALCULATION -------
 
NODE# NODE HEAD[M] MATRIX HEAD [M] EXCHANGE [M^3/D]    CADSFLOW            PFPSFLOW         DIRECT RECHARGE        QWELL         FHLQ            CAUCHY         CAUCHY LQ               QLH              QFIX
    1  20.00000      20.00027       -0.2110262E-01       0.000000           0.000000           0.000000        0.000000         0.000000         0.000000         0.000000         0.000000         0.000000    
    2  20.00    FIX  20.00000           0.0000           0.000000           0.000000           0.000000        0.000000         0.000000         0.000000         0.000000         0.000000        0.1531199E-01
    3  20.00000      20.00026       -0.6030526E-01       0.000000           0.000000           0.000000        0.000000         0.000000         0.000000         0.000000         0.000000         0.000000    
    4  20.00000      20.00040       -0.6268498E-01       0.000000           0.000000          0.3000000       -.5000000         0.000000         0.000000         0.000000         0.000000         0.000000    
    5  20.00000      20.00052       -0.4059514E-01       0.000000           0.000000           0.000000        0.000000         0.000000         0.000000         0.000000         0.000000         0.000000    
 
TUBE  B  E  FLOW          Q [M^3/D]       DIAM.[M]        LEN.[M]        RE         RESIDENCE TIME [D]
   1   1   3   LAMI.         0.02110        0.10000       10.00000        3.48200        3.72180
   2   2   3   LAMI.         0.01531        0.10000       10.00000        2.52652        5.12930
   3   3   4   TURB.         0.09672        0.10000       10.00000       15.95908        0.81203
   4   4   5   LAMI.        -0.04060        0.10000       10.00000        6.69832        1.93471
 

    BUDGET OF THE PIPE SYSTEM OF TIMESTEP    1 IN STRESS PERIOD    1
------------------------------------------------------------------------

  TOTAL SIMULATION TIME   10.0000000000000      S
 
       CUMULATIVE VALUES (L**3)           RATES THIS TIME STEP (L**3/T)

            IN:                               IN:
     CONSTANT HEAD =  0.15311985          CONSTANT HEAD =  0.15311985E-01
      FHLQ BC (LQ) =   0.0000000           FHLQ BC (LQ) =   0.0000000    
   MATRIX EXCHANGE =   1.8468801        MATRIX EXCHANGE =  0.18468801    
     PIPE RECHARGE =   3.0000000          PIPE RECHARGE =  0.30000000    
           WELL BC =   0.0000000                WELL BC =   0.0000000    
       PFP STORAGE =   0.0000000            PFP STORAGE =   0.0000000    

     CUMULATIVE IN =   5.0000000               TOTAL IN =  0.50000000    

           OUT:                               OUT:
     CONSTANT HEAD =   0.0000000          CONSTANT HEAD =   0.0000000    
      FHLQ BC (LQ) =   0.0000000           FHLQ BC (LQ) =   0.0000000    
   MATRIX EXCHANGE =   0.0000000        MATRIX EXCHANGE =   0.0000000    
     PIPE RECHARGE =   0.0000000          PIPE RECHARGE =   0.0000000    
           WELL BC =   5.0000000                WELL BC =  0.50000000    
       PFP STORAGE =   0.0000000            PFP STORAGE =   0.0000000    

    CUMULATIVE OUT =   5.0000000              TOTAL OUT =  0.50000000    

          IN - OUT =  0.24884903E-08           IN - OUT =  0.24884905E-09
     PERCENT ERROR =  0.00                PERCENT ERROR =  0.00


 
 ------------------------NODE WATER BUDGET-----------------------
  STRESS PERIOD           1  TIME STEP           1
 TOTAL SIMULATION TIME   10.0000000000000     
 
 FLOW TO THE NODE IN M^3/D
 
 NODE   FIXED HEAD     RECHARGE        QWELL  MATRIX EXCH      STORAGE      TUBE_IN     TUBE_OUT         CADS     FHLQ(LQ)       CAUCHY   CAUCHY(LQ)          QLH     IN - OUT
   1     0.0000       0.0000       0.0000      0.21103E-01   0.0000       0.0000     -0.21103E-01   0.0000       0.0000       0.0000       0.0000       0.0000     -0.38117E-09
   2    0.15312E-01   0.0000       0.0000       0.0000       0.0000       0.0000     -0.15312E-01   0.0000       0.0000       0.0000       0.0000       0.0000       0.0000    
   3     0.0000       0.0000       0.0000      0.60305E-01   0.0000      0.36415E-01 -0.96720E-01   0.0000       0.0000       0.0000       0.0000       0.0000      0.27252E-08
   4     0.0000      0.30000     -0.50000      0.62685E-01   0.0000      0.13732       0.0000       0.0000       0.0000       0.0000       0.0000       0.0000     -0.18821E-08
   5     0.0000       0.0000       0.0000      0.40595E-01   0.0000       0.0000     -0.40595E-01   0.0000       0.0000       0.0000       0.0000       0.0000     -0.21313E-09
 TIME SERIES OUTPUT IN FILE NODE00000001.OUT
 TIME SERIES OUTPUT IN FILE NODE00000002.OUT
 TIME SERIES OUTPUT IN FILE NODE00000003.OUT
 TIME SERIES OUTPUT IN FILE NODE00000004.OUT
 TIME SERIES OUTPUT IN FILE NODE00000005.OUT
 TIME SERIES OUTPUT IN FILE TUBE00000001.OUT
 TIME SERIES OUTPUT IN FILE TUBE00000002.OUT
 TIME SERIES OUTPUT IN FILE TUBE00000003.OUT
 TIME SERIES OUTPUT IN FILE TUBE00000004.OUT

 HEAD WILL BE SAVED ON UNIT   51 AT END OF TIME STEP   1, STRESS PERIOD    1
 
 SOLVING FOR HEAD 
MODFLOW ITER.#  NEWTON-RAPHSON ITER.#   MAXIMUM NODE HEAD CHANGE
         1                   1                  0.0000000000
         1                   2                  0.0000000000
         1                   3                  0.0000000000
     1 CALLS TO PCG ROUTINE FOR TIME STEP   2 IN STRESS PERIOD    1
     1 TOTAL ITERATIONS
MODFLOW ITER.#  NEWTON-RAPHSON ITER.#   MAXIMUM NODE HEAD CHANGE
         1                   1                  0.0000000000
         1                   2                  0.0000000000
         1                   3                  0.0000000000

 NO OUTPUT CONTROL FOR STRESS PERIOD    1   TIME STEP   2
 
 
 CFPM1 CRITERION OF CONVERGENCE:     0.1000000E-05
 CFPM1 MAXIMUM NUMBER OF ITERATIONS:   100
 
 
 CFPM1 RESULTS +++++++++++++++++++++++++++++++++++++++++++++++++++++++
 
 STRESS PERIOD/TIME STEP           1           2
 
NUMBER OF NEWTON RHAPSON ITERATIONS:     3
 
 ------- RESULTS OF FLOW CALCULATION -------
 
NODE# NODE HEAD[M] MATRIX HEAD [M] EXCHANGE [M^3/D]    CADSFLOW            PFPSFLOW         DIRECT RECHARGE        QWELL         FHLQ            CAUCHY         CAUCHY LQ               QLH              QFIX
    1  20.00000      20.00027       -0.2110266E-01       0.000000           0.000000           0.000000        0.000000         0.000000         0.000000         0.000000         0.000000         0.000000    
    2  20.00    FIX  20.00000           0.0000           0.000000           0.000000           0.000000        0.000000         0.000000         0.000000         0.000000         0.000000        0.1531184E-01
    3  20.00000      20.00026       -0.6030536E-01       0.000000           0.000000           0.000000        0.000000         0.000000         0.000000         0.000000         0.000000         0.000000    
    4  20.00000      20.00040       -0.6268498E-01       0.000000           0.000000          0.3000000       -.5000000         0.000000         0.000000         0.000000         0.000000         0.000000    
    5  20.00000      20.00052       -0.4059516E-01       0.000000           0.000000           0.000000        0.000000         0.000000         0.000000         0.000000         0.000000         0.000000    
 
TUBE  B  E  FLOW          Q [M^3/D]       DIAM.[M]        LEN.[M]        RE         RESIDENCE TIME [D]
   1   1   3   LAMI.         0.02110        0.10000       10.00000        3.48200        3.72180
   2   2   3   LAMI.         0.01531        0.10000       10.00000        2.52650        5.12935
   3   3   4   TURB.         0.09672        0.10000       10.00000       15.95907        0.81203
   4   4   5   LAMI.        -0.04060        0.10000       10.00000        6.69833        1.93471
 

    BUDGET OF THE PIPE SYSTEM OF TIMESTEP    2 IN STRESS PERIOD    1
------------------------------------------------------------------------

  TOTAL SIMULATION TIME   20.0000000000000      S
 
       CUMULATIVE VALUES (L**3)           RATES THIS TIME STEP (L**3/T)

            IN:                               IN:
     CONSTANT HEAD =  0.30623827          CONSTANT HEAD =  0.15311841E-01
      FHLQ BC (LQ) =   0.0000000           FHLQ BC (LQ) =   0.0000000    
   MATRIX EXCHANGE =   3.6937617        MATRIX EXCHANGE =  0.18468816    
     PIPE RECHARGE =   6.0000000          PIPE RECHARGE =  0.30000000    
           WELL BC =   0.0000000                WELL BC =   0.0000000    
       PFP STORAGE =   0.0000000            PFP STORAGE =   0.0000000    

     CUMULATIVE IN =   10.000000               TOTAL IN =  0.50000000    

           OUT:                               OUT:
     CONSTANT HEAD =   0.0000000          CONSTANT HEAD =   0.0000000    
      FHLQ BC (LQ) =   0.0000000           FHLQ BC (LQ) =   0.0000000    
   MATRIX EXCHANGE =   0.0000000        MATRIX EXCHANGE =   0.0000000    
     PIPE RECHARGE =   0.0000000          PIPE RECHARGE =   0.0000000    
           WELL BC =   10.000000                WELL BC =  0.50000000    
       PFP STORAGE =   0.0000000            PFP STORAGE =   0.0000000    

    CUMULATIVE OUT =   10.000000              TOTAL OUT =  0.50000000    

          IN - OUT = -0.95520791E-09           IN - OUT = -0.34436981E-09
     PERCENT ERROR =  0.00                PERCENT ERROR =  0.00


 
 ------------------------NODE WATER BUDGET-----------------------
  STRESS PERIOD           1  TIME STEP           2
 TOTAL SIMULATION TIME   20.0000000000000     
 
 FLOW TO THE NODE IN M^3/D
 
 NODE   FIXED HEAD     RECHARGE        QWELL  MATRIX EXCH      STORAGE      TUBE_IN     TUBE_OUT         CADS     FHLQ(LQ)       CAUCHY   CAUCHY(LQ)          QLH     IN - OUT
   1     0.0000       0.0000       0.0000      0.21103E-01   0.0000       0.0000     -0.21103E-01   0.0000       0.0000       0.0000       0.0000       0.0000      0.50887E-09
   2    0.15312E-01   0.0000       0.0000       0.0000       0.0000       0.0000     -0.15312E-01   0.0000       0.0000       0.0000       0.0000       0.0000       0.0000    
   3     0.0000       0.0000       0.0000      0.60305E-01   0.0000      0.36415E-01 -0.96720E-01   0.0000       0.0000       0.0000       0.0000       0.0000     -0.43431E-08
   4     0.0000      0.30000     -0.50000      0.62685E-01   0.0000      0.13732       0.0000       0.0000       0.0000       0.0000       0.0000       0.0000      0.40058E-08
   5     0.0000       0.0000       0.0000      0.40595E-01   0.0000       0.0000     -0.40595E-01   0.0000       0.0000       0.0000       0.0000       0.0000     -0.51591E-09
 
 SOLVING FOR HEAD 
MODFLOW ITER.#  NEWTON-RAPHSON ITER.#   MAXIMUM NODE HEAD CHANGE
         1                   1                  0.0000000000
         1                   2                  0.0000000000
         1                   3                  0.0000000000
     1 CALLS TO PCG ROUTINE FOR TIME STEP   3 IN STRESS PERIOD    1
     1 TOTAL ITERATIONS
MODFLOW ITER.#  NEWTON-RAPHSON ITER.#   MAXIMUM NODE HEAD CHANGE
         1                   1                  0.0000000000
         1                   2                  0.0000000000
         1                   3                  0.0000000000

 NO OUTPUT CONTROL FOR STRESS PERIOD    1   TIME STEP   3
 
 
 CFPM1 CRITERION OF CONVERGENCE:     0.1000000E-05
 CFPM1 MAXIMUM NUMBER OF ITERATIONS:   100
 
 
 CFPM1 RESULTS +++++++++++++++++++++++++++++++++++++++++++++++++++++++
 
 STRESS PERIOD/TIME STEP           1           3
 
NUMBER OF NEWTON RHAPSON ITERATIONS:     3
 
 ------- RESULTS OF FLOW CALCULATION -------
 
NODE# NODE HEAD[M] MATRIX HEAD [M] EXCHANGE [M^3/D]    CADSFLOW            PFPSFLOW         DIRECT RECHARGE        QWELL         FHLQ            CAUCHY         CAUCHY LQ               QLH              QFIX
    1  20.00000      20.00027       -0.2110268E-01       0.000000           0.000000           0.000000        0.000000         0.000000         0.000000         0.000000         0.000000         0.000000    
    2  20.00    FIX  20.00000           0.0000           0.000000           0.000000           0.000000        0.000000         0.000000         0.000000         0.000000         0.000000        0.1531161E-01
    3  20.00000      20.00026       -0.6030544E-01       0.000000           0.000000           0.000000        0.000000         0.000000         0.000000         0.000000         0.000000         0.000000    
    4  20.00000      20.00040       -0.6268508E-01       0.000000           0.000000          0.3000000       -.5000000         0.000000         0.000000         0.000000         0.000000         0.000000    
    5  20.00000      20.00052       -0.4059519E-01       0.000000           0.000000           0.000000        0.000000         0.000000         0.000000         0.000000         0.000000         0.000000    
 
TUBE  B  E  FLOW          Q [M^3/D]       DIAM.[M]        LEN.[M]        RE         RESIDENCE TIME [D]
   1   1   3   LAMI.         0.02110        0.10000       10.00000        3.48201        3.72179
   2   2   3   LAMI.         0.01531        0.10000       10.00000        2.52646        5.12943
   3   3   4   TURB.         0.09672        0.10000       10.00000       15.95905        0.81204
   4   4   5   LAMI.        -0.04060        0.10000       10.00000        6.69833        1.93471
 

    BUDGET OF THE PIPE SYSTEM OF TIMESTEP    3 IN STRESS PERIOD    1
------------------------------------------------------------------------

  TOTAL SIMULATION TIME   30.0000000000000      S
 
       CUMULATIVE VALUES (L**3)           RATES THIS TIME STEP (L**3/T)

            IN:                               IN:
     CONSTANT HEAD =  0.45935435          CONSTANT HEAD =  0.15311608E-01
      FHLQ BC (LQ) =   0.0000000           FHLQ BC (LQ) =   0.0000000    
   MATRIX EXCHANGE =   5.5406457        MATRIX EXCHANGE =  0.18468839    
     PIPE RECHARGE =   9.0000000          PIPE RECHARGE =  0.30000000    
           WELL BC =   0.0000000                WELL BC =   0.0000000    
       PFP STORAGE =   0.0000000            PFP STORAGE =   0.0000000    

     CUMULATIVE IN =   15.000000               TOTAL IN =  0.50000000    

           OUT:                               OUT:
     CONSTANT HEAD =   0.0000000          CONSTANT HEAD =   0.0000000    
      FHLQ BC (LQ) =   0.0000000           FHLQ BC (LQ) =   0.0000000    
   MATRIX EXCHANGE =   0.0000000        MATRIX EXCHANGE =   0.0000000    
     PIPE RECHARGE =   0.0000000          PIPE RECHARGE =   0.0000000    
           WELL BC =   15.000000                WELL BC =  0.50000000    
       PFP STORAGE =   0.0000000            PFP STORAGE =   0.0000000    

    CUMULATIVE OUT =   15.000000              TOTAL OUT =  0.50000000    

          IN - OUT = -0.27976004E-08           IN - OUT = -0.18423929E-09
     PERCENT ERROR =  0.00                PERCENT ERROR =  0.00


 
 ------------------------NODE WATER BUDGET-----------------------
  STRESS PERIOD           1  TIME STEP           3
 TOTAL SIMULATION TIME   30.0000000000000     
 
 FLOW TO THE NODE IN M^3/D
 
 NODE   FIXED HEAD     RECHARGE        QWELL  MATRIX EXCH      STORAGE      TUBE_IN     TUBE_OUT         CADS     FHLQ(LQ)       CAUCHY   CAUCHY(LQ)          QLH     IN - OUT
   1     0.0000       0.0000       0.0000      0.21103E-01   0.0000       0.0000     -0.21103E-01   0.0000       0.0000       0.0000       0.0000       0.0000      0.84810E-10
   2    0.15312E-01   0.0000       0.0000       0.0000       0.0000       0.0000     -0.15312E-01   0.0000       0.0000       0.0000       0.0000       0.0000       0.0000    
   3     0.0000       0.0000       0.0000      0.60305E-01   0.0000      0.36414E-01 -0.96720E-01   0.0000       0.0000       0.0000       0.0000       0.0000     -0.21869E-08
   4     0.0000      0.30000     -0.50000      0.62685E-01   0.0000      0.13731       0.0000       0.0000       0.0000       0.0000       0.0000       0.0000      0.24142E-08
   5     0.0000       0.0000       0.0000      0.40595E-01   0.0000       0.0000     -0.40595E-01   0.0000       0.0000       0.0000       0.0000       0.0000     -0.49638E-09
 
 SOLVING FOR HEAD 
MODFLOW ITER.#  NEWTON-RAPHSON ITER.#   MAXIMUM NODE HEAD CHANGE
         1                   1                  0.0000000000
         1                   2                  0.0000000000
         1                   3                  0.0000000000
     1 CALLS TO PCG ROUTINE FOR TIME STEP   4 IN STRESS PERIOD    1
     1 TOTAL ITERATIONS
MODFLOW ITER.#  NEWTON-RAPHSON ITER.#   MAXIMUM NODE HEAD CHANGE
         1                   1                  0.0000000000
         1                   2                  0.0000000000
         1                   3                  0.0000000000

 NO OUTPUT CONTROL FOR STRESS PERIOD    1   TIME STEP   4
 
 
 CFPM1 CRITERION OF CONVERGENCE:     0.1000000E-05
 CFPM1 MAXIMUM NUMBER OF ITERATIONS:   100
 
 
 CFPM1 RESULTS +++++++++++++++++++++++++++++++++++++++++++++++++++++++
 
 STRESS PERIOD/TIME STEP           1           4
 
NUMBER OF NEWTON RHAPSON ITERATIONS:     3
 
 ------- RESULTS OF FLOW CALCULATION -------
 
NODE# NODE HEAD[M] MATRIX HEAD [M] EXCHANGE [M^3/D]    CADSFLOW            PFPSFLOW         DIRECT RECHARGE        QWELL         FHLQ            CAUCHY         CAUCHY LQ               QLH              QFIX
    1  20.00000      20.00027       -0.2110269E-01       0.000000           0.000000           0.000000        0.000000         0.000000         0.000000         0.000000         0.000000         0.000000    
    2  20.00    FIX  20.00000           0.0000           0.000000           0.000000           0.000000        0.000000         0.000000         0.000000         0.000000         0.000000        0.1531155E-01
    3  20.00000      20.00026       -0.6030547E-01       0.000000           0.000000           0.000000        0.000000         0.000000         0.000000         0.000000         0.000000         0.000000    
    4  20.00000      20.00040       -0.6268509E-01       0.000000           0.000000          0.3000000       -.5000000         0.000000         0.000000         0.000000         0.000000         0.000000    
    5  20.00000      20.00052       -0.4059521E-01       0.000000           0.000000           0.000000        0.000000         0.000000         0.000000         0.000000         0.000000         0.000000    
 
TUBE  B  E  FLOW          Q [M^3/D]       DIAM.[M]        LEN.[M]        RE         RESIDENCE TIME [D]
   1   1   3   LAMI.         0.02110        0.10000       10.00000        3.48201        3.72179
   2   2   3   LAMI.         0.01531        0.10000       10.00000        2.52645        5.12945
   3   3   4   TURB.         0.09672        0.10000       10.00000       15.95905        0.81204
   4   4   5   LAMI.        -0.04060        0.10000       10.00000        6.69833        1.93471
 

    BUDGET OF THE PIPE SYSTEM OF TIMESTEP    4 IN STRESS PERIOD    1
------------------------------------------------------------------------

  TOTAL SIMULATION TIME   40.0000000000000      S
 
       CUMULATIVE VALUES (L**3)           RATES THIS TIME STEP (L**3/T)

            IN:                               IN:
     CONSTANT HEAD =  0.61246985          CONSTANT HEAD =  0.15311550E-01
      FHLQ BC (LQ) =   0.0000000           FHLQ BC (LQ) =   0.0000000    
   MATRIX EXCHANGE =   7.3875301        MATRIX EXCHANGE =  0.18468845    
     PIPE RECHARGE =   12.000000          PIPE RECHARGE =  0.30000000    
           WELL BC =   0.0000000                WELL BC =   0.0000000    
       PFP STORAGE =   0.0000000            PFP STORAGE =   0.0000000    

     CUMULATIVE IN =   20.000000               TOTAL IN =  0.50000000    

           OUT:                               OUT:
     CONSTANT HEAD =   0.0000000          CONSTANT HEAD =   0.0000000    
      FHLQ BC (LQ) =   0.0000000           FHLQ BC (LQ) =   0.0000000    
   MATRIX EXCHANGE =   0.0000000        MATRIX EXCHANGE =   0.0000000    
     PIPE RECHARGE =   0.0000000          PIPE RECHARGE =   0.0000000    
           WELL BC =   20.000000                WELL BC =  0.50000000    
       PFP STORAGE =   0.0000000            PFP STORAGE =   0.0000000    

    CUMULATIVE OUT =   20.000000              TOTAL OUT =  0.50000000    

          IN - OUT = -0.35034535E-08           IN - OUT = -0.70585371E-10
     PERCENT ERROR =  0.00                PERCENT ERROR =  0.00


 
 ------------------------NODE WATER BUDGET-----------------------
  STRESS PERIOD           1  TIME STEP           4
 TOTAL SIMULATION TIME   40.0000000000000     
 
 FLOW TO THE NODE IN M^3/D
 
 NODE   FIXED HEAD     RECHARGE        QWELL  MATRIX EXCH      STORAGE      TUBE_IN     TUBE_OUT         CADS     FHLQ(LQ)       CAUCHY   CAUCHY(LQ)          QLH     IN - OUT
   1     0.0000       0.0000       0.0000      0.21103E-01   0.0000       0.0000     -0.21103E-01   0.0000       0.0000       0.0000       0.0000       0.0000     -0.30118E-09
   2    0.15312E-01   0.0000       0.0000       0.0000       0.0000       0.0000     -0.15312E-01   0.0000       0.0000       0.0000       0.0000       0.0000       0.0000    
   3     0.0000       0.0000       0.0000      0.60305E-01   0.0000      0.36414E-01 -0.96720E-01   0.0000       0.0000       0.0000       0.0000       0.0000     -0.12936E-08
   4     0.0000      0.30000     -0.50000      0.62685E-01   0.0000      0.13731       0.0000       0.0000       0.0000       0.0000       0.0000       0.0000      0.20958E-08
   5     0.0000       0.0000       0.0000      0.40595E-01   0.0000       0.0000     -0.40595E-01   0.0000       0.0000       0.0000       0.0000       0.0000     -0.57156E-09
 
 SOLVING FOR HEAD 
MODFLOW ITER.#  NEWTON-RAPHSON ITER.#   MAXIMUM NODE HEAD CHANGE
         1                   1                  0.0000000000
         1                   2                  0.0000000000
         1                   3                  0.0000000000
     1 CALLS TO PCG ROUTINE FOR TIME STEP   5 IN STRESS PERIOD    1
     1 TOTAL ITERATIONS

 MAXIMUM HEAD CHANGE FOR EACH ITERATION (1 INDICATES THE FIRST INNER ITERATION):

    HEAD CHANGE    HEAD CHANGE    HEAD CHANGE    HEAD CHANGE    HEAD CHANGE 
   LAYER,ROW,COL  LAYER,ROW,COL  LAYER,ROW,COL  LAYER,ROW,COL  LAYER,ROW,COL
 ---------------------------------------------------------------------------
  1  0.1946E-09
   (  3,  3,  3)

 MAXIMUM RESIDUAL FOR EACH ITERATION (1 INDICATES THE FIRST INNER ITERATION):

    RESIDUAL       RESIDUAL       RESIDUAL       RESIDUAL       RESIDUAL    
   LAYER,ROW,COL  LAYER,ROW,COL  LAYER,ROW,COL  LAYER,ROW,COL  LAYER,ROW,COL
 ---------------------------------------------------------------------------
  1 -0.2589E-06
   (  3,  2,  4)


MODFLOW ITER.#  NEWTON-RAPHSON ITER.#   MAXIMUM NODE HEAD CHANGE
         1                   1                  0.0000000000
         1                   2                  0.0000000000
         1                   3                  0.0000000000

 NO OUTPUT CONTROL FOR STRESS PERIOD    1   TIME STEP   5
 
 
 CFPM1 CRITERION OF CONVERGENCE:     0.1000000E-05
 CFPM1 MAXIMUM NUMBER OF ITERATIONS:   100
 
 
 CFPM1 RESULTS +++++++++++++++++++++++++++++++++++++++++++++++++++++++
 
 STRESS PERIOD/TIME STEP           1           5
 
NUMBER OF NEWTON RHAPSON ITERATIONS:     3
 
 ------- RESULTS OF FLOW CALCULATION -------
 
NODE# NODE HEAD[M] MATRIX HEAD [M] EXCHANGE [M^3/D]    CADSFLOW            PFPSFLOW         DIRECT RECHARGE        QWELL         FHLQ            CAUCHY         CAUCHY LQ               QLH              QFIX
    1  20.00000      20.00027       -0.2110270E-01       0.000000           0.000000           0.000000        0.000000         0.000000         0.000000         0.000000         0.000000         0.000000    
    2  20.00    FIX  20.00000           0.0000           0.000000           0.000000           0.000000        0.000000         0.000000         0.000000         0.000000         0.000000        0.1531148E-01
    3  20.00000      20.00026       -0.6030549E-01       0.000000           0.000000           0.000000        0.000000         0.000000         0.000000         0.000000         0.000000         0.000000    
    4  20.00000      20.00040       -0.6268512E-01       0.000000           0.000000          0.3000000       -.5000000         0.000000         0.000000         0.000000         0.000000         0.000000    
    5  20.00000      20.00052       -0.4059521E-01       0.000000           0.000000           0.000000        0.000000         0.000000         0.000000         0.000000         0.000000         0.000000    
 
TUBE  B  E  FLOW          Q [M^3/D]       DIAM.[M]        LEN.[M]        RE         RESIDENCE TIME [D]
   1   1   3   LAMI.         0.02110        0.10000       10.00000        3.48201        3.72179
   2   2   3   LAMI.         0.01531        0.10000       10.00000        2.52644        5.12947
   3   3   4   TURB.         0.09672        0.10000       10.00000       15.95904        0.81204
   4   4   5   LAMI.        -0.04060        0.10000       10.00000        6.69833        1.93471
 

    BUDGET OF THE PIPE SYSTEM OF TIMESTEP    5 IN STRESS PERIOD    1
------------------------------------------------------------------------

  TOTAL SIMULATION TIME   50.0000000000000      S
 
       CUMULATIVE VALUES (L**3)           RATES THIS TIME STEP (L**3/T)

            IN:                               IN:
     CONSTANT HEAD =  0.76558464          CONSTANT HEAD =  0.15311479E-01
      FHLQ BC (LQ) =   0.0000000           FHLQ BC (LQ) =   0.0000000    
   MATRIX EXCHANGE =   9.2344154        MATRIX EXCHANGE =  0.18468852    
     PIPE RECHARGE =   15.000000          PIPE RECHARGE =  0.30000000    
           WELL BC =   0.0000000                WELL BC =   0.0000000    
       PFP STORAGE =   0.0000000            PFP STORAGE =   0.0000000    

     CUMULATIVE IN =   25.000000               TOTAL IN =  0.50000000    

           OUT:                               OUT:
     CONSTANT HEAD =   0.0000000          CONSTANT HEAD =   0.0000000    
      FHLQ BC (LQ) =   0.0000000           FHLQ BC (LQ) =   0.0000000    
   MATRIX EXCHANGE =   0.0000000        MATRIX EXCHANGE =   0.0000000    
     PIPE RECHARGE =   0.0000000          PIPE RECHARGE =   0.0000000    
           WELL BC =   25.000000                WELL BC =  0.50000000    
       PFP STORAGE =   0.0000000            PFP STORAGE =   0.0000000    

    CUMULATIVE OUT =   25.000000              TOTAL OUT =  0.50000000    

          IN - OUT = -0.68735044E-08           IN - OUT = -0.33700506E-09
     PERCENT ERROR =  0.00                PERCENT ERROR =  0.00


 
 ------------------------NODE WATER BUDGET-----------------------
  STRESS PERIOD           1  TIME STEP           5
 TOTAL SIMULATION TIME   50.0000000000000     
 
 FLOW TO THE NODE IN M^3/D
 
 NODE   FIXED HEAD     RECHARGE        QWELL  MATRIX EXCH      STORAGE      TUBE_IN     TUBE_OUT         CADS     FHLQ(LQ)       CAUCHY   CAUCHY(LQ)          QLH     IN - OUT
   1     0.0000       0.0000       0.0000      0.21103E-01   0.0000       0.0000     -0.21103E-01   0.0000       0.0000       0.0000       0.0000       0.0000      0.12538E-09
   2    0.15311E-01   0.0000       0.0000       0.0000       0.0000       0.0000     -0.15311E-01   0.0000       0.0000       0.0000       0.0000       0.0000       0.0000    
   3     0.0000       0.0000       0.0000      0.60305E-01   0.0000      0.36414E-01 -0.96720E-01   0.0000       0.0000       0.0000       0.0000       0.0000     -0.15759E-08
   4     0.0000      0.30000     -0.50000      0.62685E-01   0.0000      0.13731       0.0000       0.0000       0.0000       0.0000       0.0000       0.0000      0.76986E-09
   5     0.0000       0.0000       0.0000      0.40595E-01   0.0000       0.0000     -0.40595E-01   0.0000       0.0000       0.0000       0.0000       0.0000      0.34367E-09
 
 SOLVING FOR HEAD 
MODFLOW ITER.#  NEWTON-RAPHSON ITER.#   MAXIMUM NODE HEAD CHANGE
         1                   1                  0.0000000000
         1                   2                  0.0000000000
         1                   3                  0.0000000000
     1 CALLS TO PCG ROUTINE FOR TIME STEP   6 IN STRESS PERIOD    1
     1 TOTAL ITERATIONS
MODFLOW ITER.#  NEWTON-RAPHSON ITER.#   MAXIMUM NODE HEAD CHANGE
         1                   1                  0.0000000000
         1                   2                  0.0000000000
         1                   3                  0.0000000000

 NO OUTPUT CONTROL FOR STRESS PERIOD    1   TIME STEP   6
 
 
 CFPM1 CRITERION OF CONVERGENCE:     0.1000000E-05
 CFPM1 MAXIMUM NUMBER OF ITERATIONS:   100
 
 
 CFPM1 RESULTS +++++++++++++++++++++++++++++++++++++++++++++++++++++++
 
 STRESS PERIOD/TIME STEP           1           6
 
NUMBER OF NEWTON RHAPSON ITERATIONS:     3
 
 ------- RESULTS OF FLOW CALCULATION -------
 
NODE# NODE HEAD[M] MATRIX HEAD [M] EXCHANGE [M^3/D]    CADSFLOW            PFPSFLOW         DIRECT RECHARGE        QWELL         FHLQ            CAUCHY         CAUCHY LQ               QLH              QFIX
    1  20.00000      20.00027       -0.2110270E-01       0.000000           0.000000           0.000000        0.000000         0.000000         0.000000         0.000000         0.000000         0.000000    
    2  20.00    FIX  20.00000           0.0000           0.000000           0.000000           0.000000        0.000000         0.000000         0.000000         0.000000         0.000000        0.1531145E-01
    3  20.00000      20.00026       -0.6030550E-01       0.000000           0.000000           0.000000        0.000000         0.000000         0.000000         0.000000         0.000000         0.000000    
    4  20.00000      20.00040       -0.6268512E-01       0.000000           0.000000          0.3000000       -.5000000         0.000000         0.000000         0.000000         0.000000         0.000000    
    5  20.00000      20.00052       -0.4059522E-01       0.000000           0.000000           0.000000        0.000000         0.000000         0.000000         0.000000         0.000000         0.000000    
 
TUBE  B  E  FLOW          Q [M^3/D]       DIAM.[M]        LEN.[M]        RE         RESIDENCE TIME [D]
   1   1   3   LAMI.         0.02110        0.10000       10.00000        3.48201        3.72179
   2   2   3   LAMI.         0.01531        0.10000       10.00000        2.52644        5.12948
   3   3   4   TURB.         0.09672        0.10000       10.00000       15.95904        0.81204
   4   4   5   LAMI.        -0.04060        0.10000       10.00000        6.69834        1.93471
 

    BUDGET OF THE PIPE SYSTEM OF TIMESTEP    6 IN STRESS PERIOD    1
------------------------------------------------------------------------

  TOTAL SIMULATION TIME   60.0000000000000      S
 
       CUMULATIVE VALUES (L**3)           RATES THIS TIME STEP (L**3/T)

            IN:                               IN:
     CONSTANT HEAD =  0.91869917          CONSTANT HEAD =  0.15311453E-01
      FHLQ BC (LQ) =   0.0000000           FHLQ BC (LQ) =   0.0000000    
   MATRIX EXCHANGE =   11.081301        MATRIX EXCHANGE =  0.18468855    
     PIPE RECHARGE =   18.000000          PIPE RECHARGE =  0.30000000    
           WELL BC =   0.0000000                WELL BC =   0.0000000    
       PFP STORAGE =   0.0000000            PFP STORAGE =   0.0000000    

     CUMULATIVE IN =   30.000000               TOTAL IN =  0.50000000    

           OUT:                               OUT:
     CONSTANT HEAD =   0.0000000          CONSTANT HEAD =   0.0000000    
      FHLQ BC (LQ) =   0.0000000           FHLQ BC (LQ) =   0.0000000    
   MATRIX EXCHANGE =   0.0000000        MATRIX EXCHANGE =   0.0000000    
     PIPE RECHARGE =   0.0000000          PIPE RECHARGE =   0.0000000    
           WELL BC =   30.000000                WELL BC =  0.50000000    
       PFP STORAGE =   0.0000000            PFP STORAGE =   0.0000000    

    CUMULATIVE OUT =   30.000000              TOTAL OUT =  0.50000000    

          IN - OUT = -0.76613009E-08           IN - OUT = -0.78779733E-10
     PERCENT ERROR =  0.00                PERCENT ERROR =  0.00


 
 ------------------------NODE WATER BUDGET-----------------------
  STRESS PERIOD           1  TIME STEP           6
 TOTAL SIMULATION TIME   60.0000000000000     
 
 FLOW TO THE NODE IN M^3/D
 
 NODE   FIXED HEAD     RECHARGE        QWELL  MATRIX EXCH      STORAGE      TUBE_IN     TUBE_OUT         CADS     FHLQ(LQ)       CAUCHY   CAUCHY(LQ)          QLH     IN - OUT
   1     0.0000       0.0000       0.0000      0.21103E-01   0.0000       0.0000     -0.21103E-01   0.0000       0.0000       0.0000       0.0000       0.0000      0.29007E-09
   2    0.15311E-01   0.0000       0.0000       0.0000       0.0000       0.0000     -0.15311E-01   0.0000       0.0000       0.0000       0.0000       0.0000       0.0000    
   3     0.0000       0.0000       0.0000      0.60306E-01   0.0000      0.36414E-01 -0.96720E-01   0.0000       0.0000       0.0000       0.0000       0.0000      0.12933E-08
   4     0.0000      0.30000     -0.50000      0.62685E-01   0.0000      0.13731       0.0000       0.0000       0.0000       0.0000       0.0000       0.0000     -0.24063E-08
   5     0.0000       0.0000       0.0000      0.40595E-01   0.0000       0.0000     -0.40595E-01   0.0000       0.0000       0.0000       0.0000       0.0000      0.74412E-09
 
 SOLVING FOR HEAD 
MODFLOW ITER.#  NEWTON-RAPHSON ITER.#   MAXIMUM NODE HEAD CHANGE
         1                   1                  0.0000000000
         1                   2                  0.0000000000
         1                   3                  0.0000000000
     1 CALLS TO PCG ROUTINE FOR TIME STEP   7 IN STRESS PERIOD    1
     1 TOTAL ITERATIONS
MODFLOW ITER.#  NEWTON-RAPHSON ITER.#   MAXIMUM NODE HEAD CHANGE
         1                   1                  0.0000000000
         1                   2                  0.0000000000
         1                   3                  0.0000000000

 NO OUTPUT CONTROL FOR STRESS PERIOD    1   TIME STEP   7
 
 
 CFPM1 CRITERION OF CONVERGENCE:     0.1000000E-05
 CFPM1 MAXIMUM NUMBER OF ITERATIONS:   100
 
 
 CFPM1 RESULTS +++++++++++++++++++++++++++++++++++++++++++++++++++++++
 
 STRESS PERIOD/TIME STEP           1           7
 
NUMBER OF NEWTON RHAPSON ITERATIONS:     3
 
 ------- RESULTS OF FLOW CALCULATION -------
 
NODE# NODE HEAD[M] MATRIX HEAD [M] EXCHANGE [M^3/D]    CADSFLOW            PFPSFLOW         DIRECT RECHARGE        QWELL         FHLQ            CAUCHY         CAUCHY LQ               QLH              QFIX
    1  20.00000      20.00027       -0.2110271E-01       0.000000           0.000000           0.000000        0.000000         0.000000         0.000000         0.000000         0.000000         0.000000    
    2  20.00    FIX  20.00000           0.0000           0.000000           0.000000           0.000000        0.000000         0.000000         0.000000         0.000000         0.000000        0.1531143E-01
    3  20.00000      20.00026       -0.6030551E-01       0.000000           0.000000           0.000000        0.000000         0.000000         0.000000         0.000000         0.000000         0.000000    
    4  20.00000      20.00040       -0.6268513E-01       0.000000           0.000000          0.3000000       -.5000000         0.000000         0.000000         0.000000         0.000000         0.000000    
    5  20.00000      20.00052       -0.4059522E-01       0.000000           0.000000           0.000000        0.000000         0.000000         0.000000         0.000000         0.000000         0.000000    
 
TUBE  B  E  FLOW          Q [M^3/D]       DIAM.[M]        LEN.[M]        RE         RESIDENCE TIME [D]
   1   1   3   LAMI.         0.02110        0.10000       10.00000        3.48201        3.72179
   2   2   3   LAMI.         0.01531        0.10000       10.00000        2.52643        5.12949
   3   3   4   TURB.         0.09672        0.10000       10.00000       15.95904        0.81204
   4   4   5   LAMI.        -0.04060        0.10000       10.00000        6.69834        1.93471
 

    BUDGET OF THE PIPE SYSTEM OF TIMESTEP    7 IN STRESS PERIOD    1
------------------------------------------------------------------------

  TOTAL SIMULATION TIME   70.0000000000000      S
 
       CUMULATIVE VALUES (L**3)           RATES THIS TIME STEP (L**3/T)

            IN:                               IN:
     CONSTANT HEAD =   1.0718135          CONSTANT HEAD =  0.15311428E-01
      FHLQ BC (LQ) =   0.0000000           FHLQ BC (LQ) =   0.0000000    
   MATRIX EXCHANGE =   12.928187        MATRIX EXCHANGE =  0.18468857    
     PIPE RECHARGE =   21.000000          PIPE RECHARGE =  0.30000000    
           WELL BC =   0.0000000                WELL BC =   0.0000000    
       PFP STORAGE =   0.0000000            PFP STORAGE =   0.0000000    

     CUMULATIVE IN =   35.000000               TOTAL IN =  0.50000000    

           OUT:                               OUT:
     CONSTANT HEAD =   0.0000000          CONSTANT HEAD =   0.0000000    
      FHLQ BC (LQ) =   0.0000000           FHLQ BC (LQ) =   0.0000000    
   MATRIX EXCHANGE =   0.0000000        MATRIX EXCHANGE =   0.0000000    
     PIPE RECHARGE =   0.0000000          PIPE RECHARGE =   0.0000000    
           WELL BC =   35.000000                WELL BC =  0.50000000    
       PFP STORAGE =   0.0000000            PFP STORAGE =   0.0000000    

    CUMULATIVE OUT =   35.000000              TOTAL OUT =  0.50000000    

          IN - OUT = -0.10557335E-07           IN - OUT = -0.28960292E-09
     PERCENT ERROR =  0.00                PERCENT ERROR =  0.00


 
 ------------------------NODE WATER BUDGET-----------------------
  STRESS PERIOD           1  TIME STEP           7
 TOTAL SIMULATION TIME   70.0000000000000     
 
 FLOW TO THE NODE IN M^3/D
 
 NODE   FIXED HEAD     RECHARGE        QWELL  MATRIX EXCH      STORAGE      TUBE_IN     TUBE_OUT         CADS     FHLQ(LQ)       CAUCHY   CAUCHY(LQ)          QLH     IN - OUT
   1     0.0000       0.0000       0.0000      0.21103E-01   0.0000       0.0000     -0.21103E-01   0.0000       0.0000       0.0000       0.0000       0.0000      0.80299E-10
   2    0.15311E-01   0.0000       0.0000       0.0000       0.0000       0.0000     -0.15311E-01   0.0000       0.0000       0.0000       0.0000       0.0000       0.0000    
   3     0.0000       0.0000       0.0000      0.60306E-01   0.0000      0.36414E-01 -0.96720E-01   0.0000       0.0000       0.0000       0.0000       0.0000     -0.32948E-08
   4     0.0000      0.30000     -0.50000      0.62685E-01   0.0000      0.13731       0.0000       0.0000       0.0000       0.0000       0.0000       0.0000      0.33277E-08
   5     0.0000       0.0000       0.0000      0.40595E-01   0.0000       0.0000     -0.40595E-01   0.0000       0.0000       0.0000       0.0000       0.0000     -0.40283E-09
 
 SOLVING FOR HEAD 
MODFLOW ITER.#  NEWTON-RAPHSON ITER.#   MAXIMUM NODE HEAD CHANGE
         1                   1                  0.0000000000
         1                   2                  0.0000000000
         1                   3                  0.0000000000
     1 CALLS TO PCG ROUTINE FOR TIME STEP   8 IN STRESS PERIOD    1
     1 TOTAL ITERATIONS
MODFLOW ITER.#  NEWTON-RAPHSON ITER.#   MAXIMUM NODE HEAD CHANGE
         1                   1                  0.0000000000
         1                   2                  0.0000000000
         1                   3                  0.0000000000

 NO OUTPUT CONTROL FOR STRESS PERIOD    1   TIME STEP   8
 
 
 CFPM1 CRITERION OF CONVERGENCE:     0.1000000E-05
 CFPM1 MAXIMUM NUMBER OF ITERATIONS:   100
 
 
 CFPM1 RESULTS +++++++++++++++++++++++++++++++++++++++++++++++++++++++
 
 STRESS PERIOD/TIME STEP           1           8
 
NUMBER OF NEWTON RHAPSON ITERATIONS:     3
 
 ------- RESULTS OF FLOW CALCULATION -------
 
NODE# NODE HEAD[M] MATRIX HEAD [M] EXCHANGE [M^3/D]    CADSFLOW            PFPSFLOW         DIRECT RECHARGE        QWELL         FHLQ            CAUCHY         CAUCHY LQ               QLH              QFIX
    1  20.00000      20.00027       -0.2110271E-01       0.000000           0.000000           0.000000        0.000000         0.000000         0.000000         0.000000         0.000000         0.000000    
    2  20.00    FIX  20.00000           0.0000           0.000000           0.000000           0.000000        0.000000         0.000000         0.000000         0.000000         0.000000        0.1531142E-01
    3  20.00000      20.00026       -0.6030552E-01       0.000000           0.000000           0.000000        0.000000         0.000000         0.000000         0.000000         0.000000         0.000000    
    4  20.00000      20.00040       -0.6268513E-01       0.000000           0.000000          0.3000000       -.5000000         0.000000         0.000000         0.000000         0.000000         0.000000    
    5  20.00000      20.00052       -0.4059523E-01       0.000000           0.000000           0.000000        0.000000         0.000000         0.000000         0.000000         0.000000         0.000000    
 
TUBE  B  E  FLOW          Q [M^3/D]       DIAM.[M]        LEN.[M]        RE         RESIDENCE TIME [D]
   1   1   3   LAMI.         0.02110        0.10000       10.00000        3.48201        3.72179
   2   2   3   LAMI.         0.01531        0.10000       10.00000        2.52643        5.12949
   3   3   4   TURB.         0.09672        0.10000       10.00000       15.95904        0.81204
   4   4   5   LAMI.        -0.04060        0.10000       10.00000        6.69834        1.93471
 

    BUDGET OF THE PIPE SYSTEM OF TIMESTEP    8 IN STRESS PERIOD    1
------------------------------------------------------------------------

  TOTAL SIMULATION TIME   80.0000000000000      S
 
       CUMULATIVE VALUES (L**3)           RATES THIS TIME STEP (L**3/T)

            IN:                               IN:
     CONSTANT HEAD =   1.2249276          CONSTANT HEAD =  0.15311417E-01
      FHLQ BC (LQ) =   0.0000000           FHLQ BC (LQ) =   0.0000000    
   MATRIX EXCHANGE =   14.775072        MATRIX EXCHANGE =  0.18468858    
     PIPE RECHARGE =   24.000000          PIPE RECHARGE =  0.30000000    
           WELL BC =   0.0000000                WELL BC =   0.0000000    
       PFP STORAGE =   0.0000000            PFP STORAGE =   0.0000000    

     CUMULATIVE IN =   40.000000               TOTAL IN =  0.50000000    

           OUT:                               OUT:
     CONSTANT HEAD =   0.0000000          CONSTANT HEAD =   0.0000000    
      FHLQ BC (LQ) =   0.0000000           FHLQ BC (LQ) =   0.0000000    
   MATRIX EXCHANGE =   0.0000000        MATRIX EXCHANGE =   0.0000000    
     PIPE RECHARGE =   0.0000000          PIPE RECHARGE =   0.0000000    
           WELL BC =   40.000000                WELL BC =  0.50000000    
       PFP STORAGE =   0.0000000            PFP STORAGE =   0.0000000    

    CUMULATIVE OUT =   40.000000              TOTAL OUT =  0.50000000    

          IN - OUT = -0.13188400E-07           IN - OUT = -0.26310651E-09
     PERCENT ERROR =  0.00                PERCENT ERROR =  0.00


 
 ------------------------NODE WATER BUDGET-----------------------
  STRESS PERIOD           1  TIME STEP           8
 TOTAL SIMULATION TIME   80.0000000000000     
 
 FLOW TO THE NODE IN M^3/D
 
 NODE   FIXED HEAD     RECHARGE        QWELL  MATRIX EXCH      STORAGE      TUBE_IN     TUBE_OUT         CADS     FHLQ(LQ)       CAUCHY   CAUCHY(LQ)          QLH     IN - OUT
   1     0.0000       0.0000       0.0000      0.21103E-01   0.0000       0.0000     -0.21103E-01   0.0000       0.0000       0.0000       0.0000       0.0000      0.60803E-09
   2    0.15311E-01   0.0000       0.0000       0.0000       0.0000       0.0000     -0.15311E-01   0.0000       0.0000       0.0000       0.0000       0.0000       0.0000    
   3     0.0000       0.0000       0.0000      0.60306E-01   0.0000      0.36414E-01 -0.96720E-01   0.0000       0.0000       0.0000       0.0000       0.0000     -0.40474E-08
   4     0.0000      0.30000     -0.50000      0.62685E-01   0.0000      0.13731       0.0000       0.0000       0.0000       0.0000       0.0000       0.0000      0.34438E-08
   5     0.0000       0.0000       0.0000      0.40595E-01   0.0000       0.0000     -0.40595E-01   0.0000       0.0000       0.0000       0.0000       0.0000     -0.26752E-09
 
 SOLVING FOR HEAD 
MODFLOW ITER.#  NEWTON-RAPHSON ITER.#   MAXIMUM NODE HEAD CHANGE
         1                   1                  0.0000000000
         1                   2                  0.0000000000
         1                   3                  0.0000000000
     1 CALLS TO PCG ROUTINE FOR TIME STEP   9 IN STRESS PERIOD    1
     1 TOTAL ITERATIONS
MODFLOW ITER.#  NEWTON-RAPHSON ITER.#   MAXIMUM NODE HEAD CHANGE
         1                   1                  0.0000000000
         1                   2                  0.0000000000
         1                   3                  0.0000000000

 NO OUTPUT CONTROL FOR STRESS PERIOD    1   TIME STEP   9
 
 
 CFPM1 CRITERION OF CONVERGENCE:     0.1000000E-05
 CFPM1 MAXIMUM NUMBER OF ITERATIONS:   100
 
 
 CFPM1 RESULTS +++++++++++++++++++++++++++++++++++++++++++++++++++++++
 
 STRESS PERIOD/TIME STEP           1           9
 
NUMBER OF NEWTON RHAPSON ITERATIONS:     3
 
 ------- RESULTS OF FLOW CALCULATION -------
 
NODE# NODE HEAD[M] MATRIX HEAD [M] EXCHANGE [M^3/D]    CADSFLOW            PFPSFLOW         DIRECT RECHARGE        QWELL         FHLQ            CAUCHY         CAUCHY LQ               QLH              QFIX
    1  20.00000      20.00027       -0.2110271E-01       0.000000           0.000000           0.000000        0.000000         0.000000         0.000000         0.000000         0.000000         0.000000    
    2  20.00    FIX  20.00000           0.0000           0.000000           0.000000           0.000000        0.000000         0.000000         0.000000         0.000000         0.000000        0.1531141E-01
    3  20.00000      20.00026       -0.6030552E-01       0.000000           0.000000           0.000000        0.000000         0.000000         0.000000         0.000000         0.000000         0.000000    
    4  20.00000      20.00040       -0.6268514E-01       0.000000           0.000000          0.3000000       -.5000000         0.000000         0.000000         0.000000         0.000000         0.000000    
    5  20.00000      20.00052       -0.4059523E-01       0.000000           0.000000           0.000000        0.000000         0.000000         0.000000         0.000000         0.000000         0.000000    
 
TUBE  B  E  FLOW          Q [M^3/D]       DIAM.[M]        LEN.[M]        RE         RESIDENCE TIME [D]
   1   1   3   LAMI.         0.02110        0.10000       10.00000        3.48201        3.72179
   2   2   3   LAMI.         0.01531        0.10000       10.00000        2.52643        5.12950
   3   3   4   TURB.         0.09672        0.10000       10.00000       15.95904        0.81204
   4   4   5   LAMI.        -0.04060        0.10000       10.00000        6.69834        1.93471
 

    BUDGET OF THE PIPE SYSTEM OF TIMESTEP    9 IN STRESS PERIOD    1
------------------------------------------------------------------------

  TOTAL SIMULATION TIME   90.0000000000000      S
 
       CUMULATIVE VALUES (L**3)           RATES THIS TIME STEP (L**3/T)

            IN:                               IN:
     CONSTANT HEAD =   1.3780417          CONSTANT HEAD =  0.15311408E-01
      FHLQ BC (LQ) =   0.0000000           FHLQ BC (LQ) =   0.0000000    
   MATRIX EXCHANGE =   16.621958        MATRIX EXCHANGE =  0.18468859    
     PIPE RECHARGE =   27.000000          PIPE RECHARGE =  0.30000000    
           WELL BC =   0.0000000                WELL BC =   0.0000000    
       PFP STORAGE =   0.0000000            PFP STORAGE =   0.0000000    

     CUMULATIVE IN =   45.000000               TOTAL IN =  0.50000000    

           OUT:                               OUT:
     CONSTANT HEAD =   0.0000000          CONSTANT HEAD =   0.0000000    
      FHLQ BC (LQ) =   0.0000000           FHLQ BC (LQ) =   0.0000000    
   MATRIX EXCHANGE =   0.0000000        MATRIX EXCHANGE =   0.0000000    
     PIPE RECHARGE =   0.0000000          PIPE RECHARGE =   0.0000000    
           WELL BC =   45.000000                WELL BC =  0.50000000    
       PFP STORAGE =   0.0000000            PFP STORAGE =   0.0000000    

    CUMULATIVE OUT =   45.000000              TOTAL OUT =  0.50000000    

          IN - OUT = -0.92417594E-08           IN - OUT =  0.39466364E-09
     PERCENT ERROR =  0.00                PERCENT ERROR =  0.00


 
 ------------------------NODE WATER BUDGET-----------------------
  STRESS PERIOD           1  TIME STEP           9
 TOTAL SIMULATION TIME   90.0000000000000     
 
 FLOW TO THE NODE IN M^3/D
 
 NODE   FIXED HEAD     RECHARGE        QWELL  MATRIX EXCH      STORAGE      TUBE_IN     TUBE_OUT         CADS     FHLQ(LQ)       CAUCHY   CAUCHY(LQ)          QLH     IN - OUT
   1     0.0000       0.0000       0.0000      0.21103E-01   0.0000       0.0000     -0.21103E-01   0.0000       0.0000       0.0000       0.0000       0.0000     -0.64344E-09
   2    0.15311E-01   0.0000       0.0000       0.0000       0.0000       0.0000     -0.15311E-01   0.0000       0.0000       0.0000       0.0000       0.0000       0.0000    
   3     0.0000       0.0000       0.0000      0.60306E-01   0.0000      0.36414E-01 -0.96720E-01   0.0000       0.0000       0.0000       0.0000       0.0000      0.15488E-08
   4     0.0000      0.30000     -0.50000      0.62685E-01   0.0000      0.13731       0.0000       0.0000       0.0000       0.0000       0.0000       0.0000     -0.53933E-09
   5     0.0000       0.0000       0.0000      0.40595E-01   0.0000       0.0000     -0.40595E-01   0.0000       0.0000       0.0000       0.0000       0.0000      0.28611E-10
 
 SOLVING FOR HEAD 
MODFLOW ITER.#  NEWTON-RAPHSON ITER.#   MAXIMUM NODE HEAD CHANGE
         1                   1                  0.0000000000
         1                   2                  0.0000000000
         1                   3                  0.0000000000
     1 CALLS TO PCG ROUTINE FOR TIME STEP  10 IN STRESS PERIOD    1
     1 TOTAL ITERATIONS

 MAXIMUM HEAD CHANGE FOR EACH ITERATION (1 INDICATES THE FIRST INNER ITERATION):

    HEAD CHANGE    HEAD CHANGE    HEAD CHANGE    HEAD CHANGE    HEAD CHANGE 
   LAYER,ROW,COL  LAYER,ROW,COL  LAYER,ROW,COL  LAYER,ROW,COL  LAYER,ROW,COL
 ---------------------------------------------------------------------------
  1  0.3882E-10
   (  3,  1,  4)

 MAXIMUM RESIDUAL FOR EACH ITERATION (1 INDICATES THE FIRST INNER ITERATION):

    RESIDUAL       RESIDUAL       RESIDUAL       RESIDUAL       RESIDUAL    
   LAYER,ROW,COL  LAYER,ROW,COL  LAYER,ROW,COL  LAYER,ROW,COL  LAYER,ROW,COL
 ---------------------------------------------------------------------------
  1 -0.3042E-07
   (  3,  2,  3)


MODFLOW ITER.#  NEWTON-RAPHSON ITER.#   MAXIMUM NODE HEAD CHANGE
         1                   1                  0.0000000000
         1                   2                  0.0000000000
         1                   3                  0.0000000000

 NO OUTPUT CONTROL FOR STRESS PERIOD    1   TIME STEP  10
 
 
 CFPM1 CRITERION OF CONVERGENCE:     0.1000000E-05
 CFPM1 MAXIMUM NUMBER OF ITERATIONS:   100
 
 
 CFPM1 RESULTS +++++++++++++++++++++++++++++++++++++++++++++++++++++++
 
 STRESS PERIOD/TIME STEP           1          10
 
NUMBER OF NEWTON RHAPSON ITERATIONS:     3
 
 ------- RESULTS OF FLOW CALCULATION -------
 
NODE# NODE HEAD[M] MATRIX HEAD [M] EXCHANGE [M^3/D]    CADSFLOW            PFPSFLOW         DIRECT RECHARGE        QWELL         FHLQ            CAUCHY         CAUCHY LQ               QLH              QFIX
    1  20.00000      20.00027       -0.2110271E-01       0.000000           0.000000           0.000000        0.000000         0.000000         0.000000         0.000000         0.000000         0.000000    
    2  20.00    FIX  20.00000           0.0000           0.000000           0.000000           0.000000        0.000000         0.000000         0.000000         0.000000         0.000000        0.1531140E-01
    3  20.00000      20.00026       -0.6030552E-01       0.000000           0.000000           0.000000        0.000000         0.000000         0.000000         0.000000         0.000000         0.000000    
    4  20.00000      20.00040       -0.6268514E-01       0.000000           0.000000          0.3000000       -.5000000         0.000000         0.000000         0.000000         0.000000         0.000000    
    5  20.00000      20.00052       -0.4059523E-01       0.000000           0.000000           0.000000        0.000000         0.000000         0.000000         0.000000         0.000000         0.000000    
 
TUBE  B  E  FLOW          Q [M^3/D]       DIAM.[M]        LEN.[M]        RE         RESIDENCE TIME [D]
   1   1   3   LAMI.         0.02110        0.10000       10.00000        3.48201        3.72179
   2   2   3   LAMI.         0.01531        0.10000       10.00000        2.52643        5.12950
   3   3   4   TURB.         0.09672        0.10000       10.00000       15.95904        0.81204
   4   4   5   LAMI.        -0.04060        0.10000       10.00000        6.69834        1.93471
 

    BUDGET OF THE PIPE SYSTEM OF TIMESTEP   10 IN STRESS PERIOD    1
------------------------------------------------------------------------

  TOTAL SIMULATION TIME   100.000000000000      S
 
       CUMULATIVE VALUES (L**3)           RATES THIS TIME STEP (L**3/T)

            IN:                               IN:
     CONSTANT HEAD =   1.5311557          CONSTANT HEAD =  0.15311403E-01
      FHLQ BC (LQ) =   0.0000000           FHLQ BC (LQ) =   0.0000000    
   MATRIX EXCHANGE =   18.468844        MATRIX EXCHANGE =  0.18468860    
     PIPE RECHARGE =   30.000000          PIPE RECHARGE =  0.30000000    
           WELL BC =   0.0000000                WELL BC =   0.0000000    
       PFP STORAGE =   0.0000000            PFP STORAGE =   0.0000000    

     CUMULATIVE IN =   50.000000               TOTAL IN =  0.50000000    

           OUT:                               OUT:
     CONSTANT HEAD =   0.0000000          CONSTANT HEAD =   0.0000000    
      FHLQ BC (LQ) =   0.0000000           FHLQ BC (LQ) =   0.0000000    
   MATRIX EXCHANGE =   0.0000000        MATRIX EXCHANGE =   0.0000000    
     PIPE RECHARGE =   0.0000000          PIPE RECHARGE =   0.0000000    
           WELL BC =   50.000000                WELL BC =  0.50000000    
       PFP STORAGE =   0.0000000            PFP STORAGE =   0.0000000    

    CUMULATIVE OUT =   50.000000              TOTAL OUT =  0.50000000    

          IN - OUT = -0.11741189E-07           IN - OUT = -0.24994259E-09
     PERCENT ERROR =  0.00                PERCENT ERROR =  0.00


 
 ------------------------NODE WATER BUDGET-----------------------
  STRESS PERIOD           1  TIME STEP          10
 TOTAL SIMULATION TIME   100.000000000000     
 
 FLOW TO THE NODE IN M^3/D
 
 NODE   FIXED HEAD     RECHARGE        QWELL  MATRIX EXCH      STORAGE      TUBE_IN     TUBE_OUT         CADS     FHLQ(LQ)       CAUCHY   CAUCHY(LQ)          QLH     IN - OUT
   1     0.0000       0.0000       0.0000      0.21103E-01   0.0000       0.0000     -0.21103E-01   0.0000       0.0000       0.0000       0.0000       0.0000     -0.10910E-09
   2    0.15311E-01   0.0000       0.0000       0.0000       0.0000       0.0000     -0.15311E-01   0.0000       0.0000       0.0000       0.0000       0.0000       0.0000    
   3     0.0000       0.0000       0.0000      0.60306E-01   0.0000      0.36414E-01 -0.96720E-01   0.0000       0.0000       0.0000       0.0000       0.0000     -0.15111E-08
   4     0.0000      0.30000     -0.50000      0.62685E-01   0.0000      0.13731       0.0000       0.0000       0.0000       0.0000       0.0000       0.0000      0.11183E-08
   5     0.0000       0.0000       0.0000      0.40595E-01   0.0000       0.0000     -0.40595E-01   0.0000       0.0000       0.0000       0.0000       0.0000      0.25192E-09
1
  VOLUMETRIC BUDGET FOR ENTIRE MODEL AT END OF TIME STEP 10 IN STRESS PERIOD   1
  ------------------------------------------------------------------------------

     CUMULATIVE VOLUMES      L**3       RATES FOR THIS TIME STEP      L**3/T
     ------------------                 ------------------------

           IN:                                      IN:
           ---                                      ---
             STORAGE =       4.1584E-12               STORAGE =           0.0000
       CONSTANT HEAD =           0.0000         CONSTANT HEAD =           0.0000
            RECHARGE =         330.0000              RECHARGE =           3.3000
               PIPES =           0.0000                 PIPES =           0.0000

            TOTAL IN =         330.0000              TOTAL IN =           3.3000

          OUT:                                     OUT:
          ----                                     ----
             STORAGE =       2.8998E-05               STORAGE =       9.1737E-14
       CONSTANT HEAD =         311.5308         CONSTANT HEAD =           3.1153
            RECHARGE =           0.0000              RECHARGE =           0.0000
               PIPES =          18.4688                 PIPES =           0.1847

           TOTAL OUT =         329.9997             TOTAL OUT =           3.3000

            IN - OUT =       3.2054E-04              IN - OUT =       1.8671E-07

 PERCENT DISCREPANCY =           0.00     PERCENT DISCREPANCY =           0.00






          TIME SUMMARY AT END OF TIME STEP  10 IN STRESS PERIOD    1
                    SECONDS     MINUTES      HOURS       DAYS        YEARS
                    -----------------------------------------------------------
   TIME STEP LENGTH 8.64000E+05  14400.      240.00      10.000     2.73785E-02
 STRESS PERIOD TIME 8.64000E+06 1.44000E+05  2400.0      100.00     0.27379    
         TOTAL TIME 8.64000E+06 1.44000E+05  2400.0      100.00     0.27379    
1
1
                            STRESS PERIOD NO.    2, LENGTH =   100.0000    
                            -----------------------------------------------

                              NUMBER OF TIME STEPS =    10

                               MULTIPLIER FOR DELT =     1.000

                            INITIAL TIME STEP SIZE =   10.00000    



                           RECHARGE
 READING ON UNIT   19 WITH FORMAT: (4E15.6)            
 
 CFP1RCH1RP SUBROUTINE READING FROM UNIT           53
 READING INPUT USED TO PARTICIAN RECHARGE AND WELL DATA
 0.0    0.0    0.0    1.0    0.0   
 DATA FOR WELLS:
 0.0    0.0    0.0   -.10    0.0   
 
 SOLVING FOR HEAD 
MODFLOW ITER.#  NEWTON-RAPHSON ITER.#   MAXIMUM NODE HEAD CHANGE
         1                   1                  0.0000010197
TUBE   2 SWITCH LAM -> TURB: LAM_RE (   30.39    ) >= TCRITREY:   20.00     TURB_RE:   94.94    
         1                   2                  0.0000000337
         1                   3                  0.0000008434
MODFLOW ITER.#  NEWTON-RAPHSON ITER.#   MAXIMUM NODE HEAD CHANGE
    SWITCH NODE  2 WITH Q   0.833178E-01 TO LQ-FLOW WITH   0.500000E-01
    CHANGED    1 CONDUIT NODES DUE TO FHLQ IN STRESS PERIOD      2
         2                   1                  0.0001776075
    RESET NODE    2 FROM LQ TO FH WITH HEAD   20.0000    
    CHANGED    1 CONDUIT NODES DUE TO FHLQ IN STRESS PERIOD      2
TUBE   2 SWITCH TURB -> LAM: TURBREY (   4.677    ) <= LCRITREY:   10.00     LAM_RE:  0.6201    
TUBE   3 SWITCH TURB -> LAM: TURBREY (   7.035    ) <= LCRITREY:   10.00     LAM_RE:  0.9363    
         2                   2                  0.0001775713
    CHANGED    1 CONDUIT NODES DUE TO FHLQ IN STRESS PERIOD      2
         2                   3                  0.0000003558
  LAMINAR PRECALCULATION
MODFLOW ITER.#  NEWTON-RAPHSON ITER.#   MAXIMUM NODE HEAD CHANGE
         3                   1                  0.0000000000


     3 CALLS TO PCG ROUTINE FOR TIME STEP   1 IN STRESS PERIOD    2
    13 TOTAL ITERATIONS
  LAMINAR PRECALCULATION
MODFLOW ITER.#  NEWTON-RAPHSON ITER.#   MAXIMUM NODE HEAD CHANGE
         3                   1                  0.0000000000

 NO OUTPUT CONTROL FOR STRESS PERIOD    2   TIME STEP   1
 
 
 CFPM1 CRITERION OF CONVERGENCE:     0.1000000E-05
 CFPM1 MAXIMUM NUMBER OF ITERATIONS:   100
 
 
 CFPM1 RESULTS +++++++++++++++++++++++++++++++++++++++++++++++++++++++
 
 STRESS PERIOD/TIME STEP           2           1
 
NUMBER OF NEWTON RHAPSON ITERATIONS:     1
 
 ------- RESULTS OF FLOW CALCULATION -------
 
NODE# NODE HEAD[M] MATRIX HEAD [M] EXCHANGE [M^3/D]    CADSFLOW            PFPSFLOW         DIRECT RECHARGE        QWELL         FHLQ            CAUCHY         CAUCHY LQ               QLH              QFIX
    1  20.00000      20.00009       -0.7012984E-02       0.000000           0.000000           0.000000        0.000000         0.000000         0.000000         0.000000         0.000000         0.000000    
    2  20.00    FIX  20.00000           0.0000           0.000000           0.000000           0.000000        0.000000         0.000000         0.000000         0.000000         0.000000       -0.6137977E-01
    3  20.00000      20.00009       -0.2003958E-01       0.000000           0.000000           0.000000        0.000000         0.000000         0.000000         0.000000         0.000000         0.000000    
    4  20.00000      20.00013       -0.2082863E-01       0.000000           0.000000          0.1000000       -.1000000         0.000000         0.000000         0.000000         0.000000         0.000000    
    5  20.00000      20.00017       -0.1349857E-01       0.000000           0.000000           0.000000        0.000000         0.000000         0.000000         0.000000         0.000000         0.000000    
 
TUBE  B  E  FLOW          Q [M^3/D]       DIAM.[M]        LEN.[M]        RE         RESIDENCE TIME [D]
   1   1   3   LAMI.         0.00701        0.10000       10.00000        1.15716       11.19920
   2   2   3   LAMI.        -0.06138        0.10000       10.00000       10.12785        1.27957
   3   3   4   LAMI.        -0.03433        0.10000       10.00000        5.66409        2.28798
   4   4   5   LAMI.        -0.01350        0.10000       10.00000        2.22731        5.81838
 

    BUDGET OF THE PIPE SYSTEM OF TIMESTEP    1 IN STRESS PERIOD    2
------------------------------------------------------------------------

  TOTAL SIMULATION TIME   110.000000000000      S
 
       CUMULATIVE VALUES (L**3)           RATES THIS TIME STEP (L**3/T)

            IN:                               IN:
     CONSTANT HEAD =   1.5311557          CONSTANT HEAD =   0.0000000    
      FHLQ BC (LQ) =   0.0000000           FHLQ BC (LQ) =   0.0000000    
   MATRIX EXCHANGE =   19.082642        MATRIX EXCHANGE =  0.61379766E-01
     PIPE RECHARGE =   31.000000          PIPE RECHARGE =  0.10000000    
           WELL BC =   0.0000000                WELL BC =   0.0000000    
       PFP STORAGE =   0.0000000            PFP STORAGE =   0.0000000    

     CUMULATIVE IN =   51.613798               TOTAL IN =  0.16137977    

           OUT:                               OUT:
     CONSTANT HEAD =  0.61379766          CONSTANT HEAD =  0.61379766E-01
      FHLQ BC (LQ) =   0.0000000           FHLQ BC (LQ) =   0.0000000    
   MATRIX EXCHANGE =   0.0000000        MATRIX EXCHANGE =   0.0000000    
     PIPE RECHARGE =   0.0000000          PIPE RECHARGE =   0.0000000    
           WELL BC =   51.000000                WELL BC =  0.10000000    
       PFP STORAGE =   0.0000000            PFP STORAGE =   0.0000000    

    CUMULATIVE OUT =   51.613798              TOTAL OUT =  0.16137977    

          IN - OUT = -0.99311031E-08           IN - OUT =  0.18100870E-09
     PERCENT ERROR =  0.00                PERCENT ERROR =  0.00


 
 ------------------------NODE WATER BUDGET-----------------------
  STRESS PERIOD           2  TIME STEP           1
 TOTAL SIMULATION TIME   110.000000000000     
 
 FLOW TO THE NODE IN M^3/D
 
 NODE   FIXED HEAD     RECHARGE        QWELL  MATRIX EXCH      STORAGE      TUBE_IN     TUBE_OUT         CADS     FHLQ(LQ)       CAUCHY   CAUCHY(LQ)          QLH     IN - OUT
   1     0.0000       0.0000       0.0000      0.70130E-02   0.0000       0.0000     -0.70130E-02   0.0000       0.0000       0.0000       0.0000       0.0000      0.12307E-09
   2   -0.61380E-01   0.0000       0.0000       0.0000       0.0000      0.61380E-01   0.0000       0.0000       0.0000       0.0000       0.0000       0.0000       0.0000    
   3     0.0000       0.0000       0.0000      0.20040E-01   0.0000      0.41340E-01 -0.61380E-01   0.0000       0.0000       0.0000       0.0000       0.0000     -0.18025E-08
   4     0.0000      0.10000     -0.10000      0.20829E-01   0.0000      0.13499E-01 -0.34327E-01   0.0000       0.0000       0.0000       0.0000       0.0000      0.25970E-08
   5     0.0000       0.0000       0.0000      0.13499E-01   0.0000       0.0000     -0.13499E-01   0.0000       0.0000       0.0000       0.0000       0.0000     -0.73657E-09
 
 SOLVING FOR HEAD 
  LAMINAR PRECALCULATION
MODFLOW ITER.#  NEWTON-RAPHSON ITER.#   MAXIMUM NODE HEAD CHANGE
         1                   1                  0.0000000000
     1 CALLS TO PCG ROUTINE FOR TIME STEP   2 IN STRESS PERIOD    2
     1 TOTAL ITERATIONS
  LAMINAR PRECALCULATION
MODFLOW ITER.#  NEWTON-RAPHSON ITER.#   MAXIMUM NODE HEAD CHANGE
         1                   1                  0.0000000000

 NO OUTPUT CONTROL FOR STRESS PERIOD    2   TIME STEP   2
 
 
 CFPM1 CRITERION OF CONVERGENCE:     0.1000000E-05
 CFPM1 MAXIMUM NUMBER OF ITERATIONS:   100
 
 
 CFPM1 RESULTS +++++++++++++++++++++++++++++++++++++++++++++++++++++++
 
 STRESS PERIOD/TIME STEP           2           2
 
NUMBER OF NEWTON RHAPSON ITERATIONS:     1
 
 ------- RESULTS OF FLOW CALCULATION -------
 
NODE# NODE HEAD[M] MATRIX HEAD [M] EXCHANGE [M^3/D]    CADSFLOW            PFPSFLOW         DIRECT RECHARGE        QWELL         FHLQ            CAUCHY         CAUCHY LQ               QLH              QFIX
    1  20.00000      20.00009       -0.7013004E-02       0.000000           0.000000           0.000000        0.000000         0.000000         0.000000         0.000000         0.000000         0.000000    
    2  20.00    FIX  20.00000           0.0000           0.000000           0.000000           0.000000        0.000000         0.000000         0.000000         0.000000         0.000000       -0.6137974E-01
    3  20.00000      20.00009       -0.2003958E-01       0.000000           0.000000           0.000000        0.000000         0.000000         0.000000         0.000000         0.000000         0.000000    
    4  20.00000      20.00013       -0.2082859E-01       0.000000           0.000000          0.1000000       -.1000000         0.000000         0.000000         0.000000         0.000000         0.000000    
    5  20.00000      20.00017       -0.1349857E-01       0.000000           0.000000           0.000000        0.000000         0.000000         0.000000         0.000000         0.000000         0.000000    
 
TUBE  B  E  FLOW          Q [M^3/D]       DIAM.[M]        LEN.[M]        RE         RESIDENCE TIME [D]
   1   1   3   LAMI.         0.00701        0.10000       10.00000        1.15717       11.19917
   2   2   3   LAMI.        -0.06138        0.10000       10.00000       10.12785        1.27957
   3   3   4   LAMI.        -0.03433        0.10000       10.00000        5.66409        2.28798
   4   4   5   LAMI.        -0.01350        0.10000       10.00000        2.22731        5.81838
 

    BUDGET OF THE PIPE SYSTEM OF TIMESTEP    2 IN STRESS PERIOD    2
------------------------------------------------------------------------

  TOTAL SIMULATION TIME   120.000000000000      S
 
       CUMULATIVE VALUES (L**3)           RATES THIS TIME STEP (L**3/T)

            IN:                               IN:
     CONSTANT HEAD =   1.5311557          CONSTANT HEAD =   0.0000000    
      FHLQ BC (LQ) =   0.0000000           FHLQ BC (LQ) =   0.0000000    
   MATRIX EXCHANGE =   19.696439        MATRIX EXCHANGE =  0.61379742E-01
     PIPE RECHARGE =   32.000000          PIPE RECHARGE =  0.10000000    
           WELL BC =   0.0000000                WELL BC =   0.0000000    
       PFP STORAGE =   0.0000000            PFP STORAGE =   0.0000000    

     CUMULATIVE IN =   53.227595               TOTAL IN =  0.16137974    

           OUT:                               OUT:
     CONSTANT HEAD =   1.2275951          CONSTANT HEAD =  0.61379741E-01
      FHLQ BC (LQ) =   0.0000000           FHLQ BC (LQ) =   0.0000000    
   MATRIX EXCHANGE =   0.0000000        MATRIX EXCHANGE =   0.0000000    
     PIPE RECHARGE =   0.0000000          PIPE RECHARGE =   0.0000000    
           WELL BC =   52.000000                WELL BC =  0.10000000    
       PFP STORAGE =   0.0000000            PFP STORAGE =   0.0000000    

    CUMULATIVE OUT =   53.227595              TOTAL OUT =  0.16137974    

          IN - OUT = -0.44529358E-09           IN - OUT =  0.94858069E-09
     PERCENT ERROR =  0.00                PERCENT ERROR =  0.00


 
 ------------------------NODE WATER BUDGET-----------------------
  STRESS PERIOD           2  TIME STEP           2
 TOTAL SIMULATION TIME   120.000000000000     
 
 FLOW TO THE NODE IN M^3/D
 
 NODE   FIXED HEAD     RECHARGE        QWELL  MATRIX EXCH      STORAGE      TUBE_IN     TUBE_OUT         CADS     FHLQ(LQ)       CAUCHY   CAUCHY(LQ)          QLH     IN - OUT
   1     0.0000       0.0000       0.0000      0.70130E-02   0.0000       0.0000     -0.70130E-02   0.0000       0.0000       0.0000       0.0000       0.0000     -0.19438E-09
   2   -0.61380E-01   0.0000       0.0000       0.0000       0.0000      0.61380E-01   0.0000       0.0000       0.0000       0.0000       0.0000       0.0000       0.0000    
   3     0.0000       0.0000       0.0000      0.20040E-01   0.0000      0.41340E-01 -0.61380E-01   0.0000       0.0000       0.0000       0.0000       0.0000      0.15236E-08
   4     0.0000      0.10000     -0.10000      0.20829E-01   0.0000      0.13499E-01 -0.34327E-01   0.0000       0.0000       0.0000       0.0000       0.0000     -0.83716E-09
   5     0.0000       0.0000       0.0000      0.13499E-01   0.0000       0.0000     -0.13499E-01   0.0000       0.0000       0.0000       0.0000       0.0000      0.45656E-09
 
 SOLVING FOR HEAD 
  LAMINAR PRECALCULATION
MODFLOW ITER.#  NEWTON-RAPHSON ITER.#   MAXIMUM NODE HEAD CHANGE
         1                   1                  0.0000000000
     1 CALLS TO PCG ROUTINE FOR TIME STEP   3 IN STRESS PERIOD    2
     1 TOTAL ITERATIONS
  LAMINAR PRECALCULATION
MODFLOW ITER.#  NEWTON-RAPHSON ITER.#   MAXIMUM NODE HEAD CHANGE
         1                   1                  0.0000000000

 NO OUTPUT CONTROL FOR STRESS PERIOD    2   TIME STEP   3
 
 
 CFPM1 CRITERION OF CONVERGENCE:     0.1000000E-05
 CFPM1 MAXIMUM NUMBER OF ITERATIONS:   100
 
 
 CFPM1 RESULTS +++++++++++++++++++++++++++++++++++++++++++++++++++++++
 
 STRESS PERIOD/TIME STEP           2           3
 
NUMBER OF NEWTON RHAPSON ITERATIONS:     1
 
 ------- RESULTS OF FLOW CALCULATION -------
 
NODE# NODE HEAD[M] MATRIX HEAD [M] EXCHANGE [M^3/D]    CADSFLOW            PFPSFLOW         DIRECT RECHARGE        QWELL         FHLQ            CAUCHY         CAUCHY LQ               QLH              QFIX
    1  20.00000      20.00009       -0.7013022E-02       0.000000           0.000000           0.000000        0.000000         0.000000         0.000000         0.000000         0.000000         0.000000    
    2  20.00    FIX  20.00000           0.0000           0.000000           0.000000           0.000000        0.000000         0.000000         0.000000         0.000000         0.000000       -0.6137985E-01
    3  20.00000      20.00009       -0.2003960E-01       0.000000           0.000000           0.000000        0.000000         0.000000         0.000000         0.000000         0.000000         0.000000    
    4  20.00000      20.00013       -0.2082864E-01       0.000000           0.000000          0.1000000       -.1000000         0.000000         0.000000         0.000000         0.000000         0.000000    
    5  20.00000      20.00017       -0.1349858E-01       0.000000           0.000000           0.000000        0.000000         0.000000         0.000000         0.000000         0.000000         0.000000    
 
TUBE  B  E  FLOW          Q [M^3/D]       DIAM.[M]        LEN.[M]        RE         RESIDENCE TIME [D]
   1   1   3   LAMI.         0.00701        0.10000       10.00000        1.15717       11.19914
   2   2   3   LAMI.        -0.06138        0.10000       10.00000       10.12786        1.27957
   3   3   4   LAMI.        -0.03433        0.10000       10.00000        5.66410        2.28797
   4   4   5   LAMI.        -0.01350        0.10000       10.00000        2.22731        5.81838
 

    BUDGET OF THE PIPE SYSTEM OF TIMESTEP    3 IN STRESS PERIOD    2
------------------------------------------------------------------------

  TOTAL SIMULATION TIME   130.000000000000      S
 
       CUMULATIVE VALUES (L**3)           RATES THIS TIME STEP (L**3/T)

            IN:                               IN:
     CONSTANT HEAD =   1.5311557          CONSTANT HEAD =   0.0000000    
      FHLQ BC (LQ) =   0.0000000           FHLQ BC (LQ) =   0.0000000    
   MATRIX EXCHANGE =   20.310238        MATRIX EXCHANGE =  0.61379846E-01
     PIPE RECHARGE =   33.000000          PIPE RECHARGE =  0.10000000    
           WELL BC =   0.0000000                WELL BC =   0.0000000    
       PFP STORAGE =   0.0000000            PFP STORAGE =   0.0000000    

     CUMULATIVE IN =   54.841394               TOTAL IN =  0.16137985    

           OUT:                               OUT:
     CONSTANT HEAD =   1.8413935          CONSTANT HEAD =  0.61379845E-01
      FHLQ BC (LQ) =   0.0000000           FHLQ BC (LQ) =   0.0000000    
   MATRIX EXCHANGE =   0.0000000        MATRIX EXCHANGE =   0.0000000    
     PIPE RECHARGE =   0.0000000          PIPE RECHARGE =   0.0000000    
           WELL BC =   53.000000                WELL BC =  0.10000000    
       PFP STORAGE =   0.0000000            PFP STORAGE =   0.0000000    

    CUMULATIVE OUT =   54.841394              TOTAL OUT =  0.16137985    

          IN - OUT =  0.56150746E-08           IN - OUT =  0.60603676E-09
     PERCENT ERROR =  0.00                PERCENT ERROR =  0.00


 
 ------------------------NODE WATER BUDGET-----------------------
  STRESS PERIOD           2  TIME STEP           3
 TOTAL SIMULATION TIME   130.000000000000     
 
 FLOW TO THE NODE IN M^3/D
 
 NODE   FIXED HEAD     RECHARGE        QWELL  MATRIX EXCH      STORAGE      TUBE_IN     TUBE_OUT         CADS     FHLQ(LQ)       CAUCHY   CAUCHY(LQ)          QLH     IN - OUT
   1     0.0000       0.0000       0.0000      0.70130E-02   0.0000       0.0000     -0.70130E-02   0.0000       0.0000       0.0000       0.0000       0.0000      0.32676E-09
   2   -0.61380E-01   0.0000       0.0000       0.0000       0.0000      0.61380E-01   0.0000       0.0000       0.0000       0.0000       0.0000       0.0000       0.0000    
   3     0.0000       0.0000       0.0000      0.20040E-01   0.0000      0.41340E-01 -0.61380E-01   0.0000       0.0000       0.0000       0.0000       0.0000     -0.48265E-09
   4     0.0000      0.10000     -0.10000      0.20829E-01   0.0000      0.13499E-01 -0.34327E-01   0.0000       0.0000       0.0000       0.0000       0.0000      0.82542E-09
   5     0.0000       0.0000       0.0000      0.13499E-01   0.0000       0.0000     -0.13499E-01   0.0000       0.0000       0.0000       0.0000       0.0000     -0.63497E-10
 
 SOLVING FOR HEAD 
  LAMINAR PRECALCULATION
MODFLOW ITER.#  NEWTON-RAPHSON ITER.#   MAXIMUM NODE HEAD CHANGE
         1                   1                  0.0000000000
     1 CALLS TO PCG ROUTINE FOR TIME STEP   4 IN STRESS PERIOD    2
     1 TOTAL ITERATIONS
  LAMINAR PRECALCULATION
MODFLOW ITER.#  NEWTON-RAPHSON ITER.#   MAXIMUM NODE HEAD CHANGE
         1                   1                  0.0000000000

 NO OUTPUT CONTROL FOR STRESS PERIOD    2   TIME STEP   4
 
 
 CFPM1 CRITERION OF CONVERGENCE:     0.1000000E-05
 CFPM1 MAXIMUM NUMBER OF ITERATIONS:   100
 
 
 CFPM1 RESULTS +++++++++++++++++++++++++++++++++++++++++++++++++++++++
 
 STRESS PERIOD/TIME STEP           2           4
 
NUMBER OF NEWTON RHAPSON ITERATIONS:     1
 
 ------- RESULTS OF FLOW CALCULATION -------
 
NODE# NODE HEAD[M] MATRIX HEAD [M] EXCHANGE [M^3/D]    CADSFLOW            PFPSFLOW         DIRECT RECHARGE        QWELL         FHLQ            CAUCHY         CAUCHY LQ               QLH              QFIX
    1  20.00000      20.00009       -0.7013029E-02       0.000000           0.000000           0.000000        0.000000         0.000000         0.000000         0.000000         0.000000         0.000000    
    2  20.00    FIX  20.00000           0.0000           0.000000           0.000000           0.000000        0.000000         0.000000         0.000000         0.000000         0.000000       -0.6137989E-01
    3  20.00000      20.00009       -0.2003962E-01       0.000000           0.000000           0.000000        0.000000         0.000000         0.000000         0.000000         0.000000         0.000000    
    4  20.00000      20.00013       -0.2082865E-01       0.000000           0.000000          0.1000000       -.1000000         0.000000         0.000000         0.000000         0.000000         0.000000    
    5  20.00000      20.00017       -0.1349859E-01       0.000000           0.000000           0.000000        0.000000         0.000000         0.000000         0.000000         0.000000         0.000000    
 
TUBE  B  E  FLOW          Q [M^3/D]       DIAM.[M]        LEN.[M]        RE         RESIDENCE TIME [D]
   1   1   3   LAMI.         0.00701        0.10000       10.00000        1.15717       11.19913
   2   2   3   LAMI.        -0.06138        0.10000       10.00000       10.12787        1.27957
   3   3   4   LAMI.        -0.03433        0.10000       10.00000        5.66410        2.28797
   4   4   5   LAMI.        -0.01350        0.10000       10.00000        2.22731        5.81837
 

    BUDGET OF THE PIPE SYSTEM OF TIMESTEP    4 IN STRESS PERIOD    2
------------------------------------------------------------------------

  TOTAL SIMULATION TIME   140.000000000000      S
 
       CUMULATIVE VALUES (L**3)           RATES THIS TIME STEP (L**3/T)

            IN:                               IN:
     CONSTANT HEAD =   1.5311557          CONSTANT HEAD =   0.0000000    
      FHLQ BC (LQ) =   0.0000000           FHLQ BC (LQ) =   0.0000000    
   MATRIX EXCHANGE =   20.924037        MATRIX EXCHANGE =  0.61379890E-01
     PIPE RECHARGE =   34.000000          PIPE RECHARGE =  0.10000000    
           WELL BC =   0.0000000                WELL BC =   0.0000000    
       PFP STORAGE =   0.0000000            PFP STORAGE =   0.0000000    

     CUMULATIVE IN =   56.455192               TOTAL IN =  0.16137989    

           OUT:                               OUT:
     CONSTANT HEAD =   2.4551924          CONSTANT HEAD =  0.61379890E-01
      FHLQ BC (LQ) =   0.0000000           FHLQ BC (LQ) =   0.0000000    
   MATRIX EXCHANGE =   0.0000000        MATRIX EXCHANGE =   0.0000000    
     PIPE RECHARGE =   0.0000000          PIPE RECHARGE =   0.0000000    
           WELL BC =   54.000000                WELL BC =  0.10000000    
       PFP STORAGE =   0.0000000            PFP STORAGE =   0.0000000    

    CUMULATIVE OUT =   56.455192              TOTAL OUT =  0.16137989    

          IN - OUT =  0.39838390E-08           IN - OUT = -0.16312311E-09
     PERCENT ERROR =  0.00                PERCENT ERROR =  0.00


 
 ------------------------NODE WATER BUDGET-----------------------
  STRESS PERIOD           2  TIME STEP           4
 TOTAL SIMULATION TIME   140.000000000000     
 
 FLOW TO THE NODE IN M^3/D
 
 NODE   FIXED HEAD     RECHARGE        QWELL  MATRIX EXCH      STORAGE      TUBE_IN     TUBE_OUT         CADS     FHLQ(LQ)       CAUCHY   CAUCHY(LQ)          QLH     IN - OUT
   1     0.0000       0.0000       0.0000      0.70130E-02   0.0000       0.0000     -0.70130E-02   0.0000       0.0000       0.0000       0.0000       0.0000      0.54080E-10
   2   -0.61380E-01   0.0000       0.0000       0.0000       0.0000      0.61380E-01   0.0000       0.0000       0.0000       0.0000       0.0000       0.0000       0.0000    
   3     0.0000       0.0000       0.0000      0.20040E-01   0.0000      0.41340E-01 -0.61380E-01   0.0000       0.0000       0.0000       0.0000       0.0000     -0.49008E-09
   4     0.0000      0.10000     -0.10000      0.20829E-01   0.0000      0.13499E-01 -0.34327E-01   0.0000       0.0000       0.0000       0.0000       0.0000     -0.76922E-09
   5     0.0000       0.0000       0.0000      0.13499E-01   0.0000       0.0000     -0.13499E-01   0.0000       0.0000       0.0000       0.0000       0.0000      0.10421E-08
 
 SOLVING FOR HEAD 
  LAMINAR PRECALCULATION
MODFLOW ITER.#  NEWTON-RAPHSON ITER.#   MAXIMUM NODE HEAD CHANGE
         1                   1                  0.0000000000
     1 CALLS TO PCG ROUTINE FOR TIME STEP   5 IN STRESS PERIOD    2
     1 TOTAL ITERATIONS

 MAXIMUM HEAD CHANGE FOR EACH ITERATION (1 INDICATES THE FIRST INNER ITERATION):

    HEAD CHANGE    HEAD CHANGE    HEAD CHANGE    HEAD CHANGE    HEAD CHANGE 
   LAYER,ROW,COL  LAYER,ROW,COL  LAYER,ROW,COL  LAYER,ROW,COL  LAYER,ROW,COL
 ---------------------------------------------------------------------------
  1  0.1553E-09
   (  3,  2,  3)

 MAXIMUM RESIDUAL FOR EACH ITERATION (1 INDICATES THE FIRST INNER ITERATION):

    RESIDUAL       RESIDUAL       RESIDUAL       RESIDUAL       RESIDUAL    
   LAYER,ROW,COL  LAYER,ROW,COL  LAYER,ROW,COL  LAYER,ROW,COL  LAYER,ROW,COL
 ---------------------------------------------------------------------------
  1 -0.2170E-06
   (  2,  3,  2)


  LAMINAR PRECALCULATION
MODFLOW ITER.#  NEWTON-RAPHSON ITER.#   MAXIMUM NODE HEAD CHANGE
         1                   1                  0.0000000000

 NO OUTPUT CONTROL FOR STRESS PERIOD    2   TIME STEP   5
 
 
 CFPM1 CRITERION OF CONVERGENCE:     0.1000000E-05
 CFPM1 MAXIMUM NUMBER OF ITERATIONS:   100
 
 
 CFPM1 RESULTS +++++++++++++++++++++++++++++++++++++++++++++++++++++++
 
 STRESS PERIOD/TIME STEP           2           5
 
NUMBER OF NEWTON RHAPSON ITERATIONS:     1
 
 ------- RESULTS OF FLOW CALCULATION -------
 
NODE# NODE HEAD[M] MATRIX HEAD [M] EXCHANGE [M^3/D]    CADSFLOW            PFPSFLOW         DIRECT RECHARGE        QWELL         FHLQ            CAUCHY         CAUCHY LQ               QLH              QFIX
    1  20.00000      20.00009       -0.7013037E-02       0.000000           0.000000           0.000000        0.000000         0.000000         0.000000         0.000000         0.000000         0.000000    
    2  20.00    FIX  20.00000           0.0000           0.000000           0.000000           0.000000        0.000000         0.000000         0.000000         0.000000         0.000000       -0.6137994E-01
    3  20.00000      20.00009       -0.2003964E-01       0.000000           0.000000           0.000000        0.000000         0.000000         0.000000         0.000000         0.000000         0.000000    
    4  20.00000      20.00013       -0.2082867E-01       0.000000           0.000000          0.1000000       -.1000000         0.000000         0.000000         0.000000         0.000000         0.000000    
    5  20.00000      20.00017       -0.1349860E-01       0.000000           0.000000           0.000000        0.000000         0.000000         0.000000         0.000000         0.000000         0.000000    
 
TUBE  B  E  FLOW          Q [M^3/D]       DIAM.[M]        LEN.[M]        RE         RESIDENCE TIME [D]
   1   1   3   LAMI.         0.00701        0.10000       10.00000        1.15717       11.19912
   2   2   3   LAMI.        -0.06138        0.10000       10.00000       10.12788        1.27957
   3   3   4   LAMI.        -0.03433        0.10000       10.00000        5.66410        2.28797
   4   4   5   LAMI.        -0.01350        0.10000       10.00000        2.22731        5.81837
 

    BUDGET OF THE PIPE SYSTEM OF TIMESTEP    5 IN STRESS PERIOD    2
------------------------------------------------------------------------

  TOTAL SIMULATION TIME   150.000000000000      S
 
       CUMULATIVE VALUES (L**3)           RATES THIS TIME STEP (L**3/T)

            IN:                               IN:
     CONSTANT HEAD =   1.5311557          CONSTANT HEAD =   0.0000000    
      FHLQ BC (LQ) =   0.0000000           FHLQ BC (LQ) =   0.0000000    
   MATRIX EXCHANGE =   21.537836        MATRIX EXCHANGE =  0.61379941E-01
     PIPE RECHARGE =   35.000000          PIPE RECHARGE =  0.10000000    
           WELL BC =   0.0000000                WELL BC =   0.0000000    
       PFP STORAGE =   0.0000000            PFP STORAGE =   0.0000000    

     CUMULATIVE IN =   58.068992               TOTAL IN =  0.16137994    

           OUT:                               OUT:
     CONSTANT HEAD =   3.0689918          CONSTANT HEAD =  0.61379940E-01
      FHLQ BC (LQ) =   0.0000000           FHLQ BC (LQ) =   0.0000000    
   MATRIX EXCHANGE =   0.0000000        MATRIX EXCHANGE =   0.0000000    
     PIPE RECHARGE =   0.0000000          PIPE RECHARGE =   0.0000000    
           WELL BC =   55.000000                WELL BC =  0.10000000    
       PFP STORAGE =   0.0000000            PFP STORAGE =   0.0000000    

    CUMULATIVE OUT =   58.068992              TOTAL OUT =  0.16137994    

          IN - OUT =  0.10672085E-07           IN - OUT =  0.66882497E-09
     PERCENT ERROR =  0.00                PERCENT ERROR =  0.00


 
 ------------------------NODE WATER BUDGET-----------------------
  STRESS PERIOD           2  TIME STEP           5
 TOTAL SIMULATION TIME   150.000000000000     
 
 FLOW TO THE NODE IN M^3/D
 
 NODE   FIXED HEAD     RECHARGE        QWELL  MATRIX EXCH      STORAGE      TUBE_IN     TUBE_OUT         CADS     FHLQ(LQ)       CAUCHY   CAUCHY(LQ)          QLH     IN - OUT
   1     0.0000       0.0000       0.0000      0.70130E-02   0.0000       0.0000     -0.70130E-02   0.0000       0.0000       0.0000       0.0000       0.0000     -0.10336E-08
   2   -0.61380E-01   0.0000       0.0000       0.0000       0.0000      0.61380E-01   0.0000       0.0000       0.0000       0.0000       0.0000       0.0000       0.0000    
   3     0.0000       0.0000       0.0000      0.20040E-01   0.0000      0.41340E-01 -0.61380E-01   0.0000       0.0000       0.0000       0.0000       0.0000      0.75182E-09
   4     0.0000      0.10000     -0.10000      0.20829E-01   0.0000      0.13499E-01 -0.34327E-01   0.0000       0.0000       0.0000       0.0000       0.0000      0.86478E-09
   5     0.0000       0.0000       0.0000      0.13499E-01   0.0000       0.0000     -0.13499E-01   0.0000       0.0000       0.0000       0.0000       0.0000      0.85785E-10
 
 SOLVING FOR HEAD 
  LAMINAR PRECALCULATION
MODFLOW ITER.#  NEWTON-RAPHSON ITER.#   MAXIMUM NODE HEAD CHANGE
         1                   1                  0.0000000000
     1 CALLS TO PCG ROUTINE FOR TIME STEP   6 IN STRESS PERIOD    2
     1 TOTAL ITERATIONS
  LAMINAR PRECALCULATION
MODFLOW ITER.#  NEWTON-RAPHSON ITER.#   MAXIMUM NODE HEAD CHANGE
         1                   1                  0.0000000000

 NO OUTPUT CONTROL FOR STRESS PERIOD    2   TIME STEP   6
 
 
 CFPM1 CRITERION OF CONVERGENCE:     0.1000000E-05
 CFPM1 MAXIMUM NUMBER OF ITERATIONS:   100
 
 
 CFPM1 RESULTS +++++++++++++++++++++++++++++++++++++++++++++++++++++++
 
 STRESS PERIOD/TIME STEP           2           6
 
NUMBER OF NEWTON RHAPSON ITERATIONS:     1
 
 ------- RESULTS OF FLOW CALCULATION -------
 
NODE# NODE HEAD[M] MATRIX HEAD [M] EXCHANGE [M^3/D]    CADSFLOW            PFPSFLOW         DIRECT RECHARGE        QWELL         FHLQ            CAUCHY         CAUCHY LQ               QLH              QFIX
    1  20.00000      20.00009       -0.7013039E-02       0.000000           0.000000           0.000000        0.000000         0.000000         0.000000         0.000000         0.000000         0.000000    
    2  20.00    FIX  20.00000           0.0000           0.000000           0.000000           0.000000        0.000000         0.000000         0.000000         0.000000         0.000000       -0.6137996E-01
    3  20.00000      20.00009       -0.2003965E-01       0.000000           0.000000           0.000000        0.000000         0.000000         0.000000         0.000000         0.000000         0.000000    
    4  20.00000      20.00013       -0.2082867E-01       0.000000           0.000000          0.1000000       -.1000000         0.000000         0.000000         0.000000         0.000000         0.000000    
    5  20.00000      20.00017       -0.1349861E-01       0.000000           0.000000           0.000000        0.000000         0.000000         0.000000         0.000000         0.000000         0.000000    
 
TUBE  B  E  FLOW          Q [M^3/D]       DIAM.[M]        LEN.[M]        RE         RESIDENCE TIME [D]
   1   1   3   LAMI.         0.00701        0.10000       10.00000        1.15717       11.19911
   2   2   3   LAMI.        -0.06138        0.10000       10.00000       10.12788        1.27957
   3   3   4   LAMI.        -0.03433        0.10000       10.00000        5.66411        2.28797
   4   4   5   LAMI.        -0.01350        0.10000       10.00000        2.22731        5.81836
 

    BUDGET OF THE PIPE SYSTEM OF TIMESTEP    6 IN STRESS PERIOD    2
------------------------------------------------------------------------

  TOTAL SIMULATION TIME   160.000000000000      S
 
       CUMULATIVE VALUES (L**3)           RATES THIS TIME STEP (L**3/T)

            IN:                               IN:
     CONSTANT HEAD =   1.5311557          CONSTANT HEAD =   0.0000000    
      FHLQ BC (LQ) =   0.0000000           FHLQ BC (LQ) =   0.0000000    
   MATRIX EXCHANGE =   22.151636        MATRIX EXCHANGE =  0.61379961E-01
     PIPE RECHARGE =   36.000000          PIPE RECHARGE =  0.10000000    
           WELL BC =   0.0000000                WELL BC =   0.0000000    
       PFP STORAGE =   0.0000000            PFP STORAGE =   0.0000000    

     CUMULATIVE IN =   59.682791               TOTAL IN =  0.16137996    

           OUT:                               OUT:
     CONSTANT HEAD =   3.6827914          CONSTANT HEAD =  0.61379961E-01
      FHLQ BC (LQ) =   0.0000000           FHLQ BC (LQ) =   0.0000000    
   MATRIX EXCHANGE =   0.0000000        MATRIX EXCHANGE =   0.0000000    
     PIPE RECHARGE =   0.0000000          PIPE RECHARGE =   0.0000000    
           WELL BC =   56.000000                WELL BC =  0.10000000    
       PFP STORAGE =   0.0000000            PFP STORAGE =   0.0000000    

    CUMULATIVE OUT =   59.682791              TOTAL OUT =  0.16137996    

          IN - OUT =  0.14421072E-07           IN - OUT =  0.37489917E-09
     PERCENT ERROR =  0.00                PERCENT ERROR =  0.00


 
 ------------------------NODE WATER BUDGET-----------------------
  STRESS PERIOD           2  TIME STEP           6
 TOTAL SIMULATION TIME   160.000000000000     
 
 FLOW TO THE NODE IN M^3/D
 
 NODE   FIXED HEAD     RECHARGE        QWELL  MATRIX EXCH      STORAGE      TUBE_IN     TUBE_OUT         CADS     FHLQ(LQ)       CAUCHY   CAUCHY(LQ)          QLH     IN - OUT
   1     0.0000       0.0000       0.0000      0.70130E-02   0.0000       0.0000     -0.70130E-02   0.0000       0.0000       0.0000       0.0000       0.0000     -0.74005E-09
   2   -0.61380E-01   0.0000       0.0000       0.0000       0.0000      0.61380E-01   0.0000       0.0000       0.0000       0.0000       0.0000       0.0000       0.0000    
   3     0.0000       0.0000       0.0000      0.20040E-01   0.0000      0.41340E-01 -0.61380E-01   0.0000       0.0000       0.0000       0.0000       0.0000      0.39560E-09
   4     0.0000      0.10000     -0.10000      0.20829E-01   0.0000      0.13499E-01 -0.34327E-01   0.0000       0.0000       0.0000       0.0000       0.0000      0.10431E-08
   5     0.0000       0.0000       0.0000      0.13499E-01   0.0000       0.0000     -0.13499E-01   0.0000       0.0000       0.0000       0.0000       0.0000     -0.32379E-09
 
 SOLVING FOR HEAD 
  LAMINAR PRECALCULATION
MODFLOW ITER.#  NEWTON-RAPHSON ITER.#   MAXIMUM NODE HEAD CHANGE
         1                   1                  0.0000000000
     1 CALLS TO PCG ROUTINE FOR TIME STEP   7 IN STRESS PERIOD    2
     1 TOTAL ITERATIONS
  LAMINAR PRECALCULATION
MODFLOW ITER.#  NEWTON-RAPHSON ITER.#   MAXIMUM NODE HEAD CHANGE
         1                   1                  0.0000000000

 NO OUTPUT CONTROL FOR STRESS PERIOD    2   TIME STEP   7
 
 
 CFPM1 CRITERION OF CONVERGENCE:     0.1000000E-05
 CFPM1 MAXIMUM NUMBER OF ITERATIONS:   100
 
 
 CFPM1 RESULTS +++++++++++++++++++++++++++++++++++++++++++++++++++++++
 
 STRESS PERIOD/TIME STEP           2           7
 
NUMBER OF NEWTON RHAPSON ITERATIONS:     1
 
 ------- RESULTS OF FLOW CALCULATION -------
 
NODE# NODE HEAD[M] MATRIX HEAD [M] EXCHANGE [M^3/D]    CADSFLOW            PFPSFLOW         DIRECT RECHARGE        QWELL         FHLQ            CAUCHY         CAUCHY LQ               QLH              QFIX
    1  20.00000      20.00009       -0.7013042E-02       0.000000           0.000000           0.000000        0.000000         0.000000         0.000000         0.000000         0.000000         0.000000    
    2  20.00    FIX  20.00000           0.0000           0.000000           0.000000           0.000000        0.000000         0.000000         0.000000         0.000000         0.000000       -0.6137998E-01
    3  20.00000      20.00009       -0.2003965E-01       0.000000           0.000000           0.000000        0.000000         0.000000         0.000000         0.000000         0.000000         0.000000    
    4  20.00000      20.00013       -0.2082868E-01       0.000000           0.000000          0.1000000       -.1000000         0.000000         0.000000         0.000000         0.000000         0.000000    
    5  20.00000      20.00017       -0.1349861E-01       0.000000           0.000000           0.000000        0.000000         0.000000         0.000000         0.000000         0.000000         0.000000    
 
TUBE  B  E  FLOW          Q [M^3/D]       DIAM.[M]        LEN.[M]        RE         RESIDENCE TIME [D]
   1   1   3   LAMI.         0.00701        0.10000       10.00000        1.15717       11.19911
   2   2   3   LAMI.        -0.06138        0.10000       10.00000       10.12789        1.27957
   3   3   4   LAMI.        -0.03433        0.10000       10.00000        5.66411        2.28797
   4   4   5   LAMI.        -0.01350        0.10000       10.00000        2.22731        5.81836
 

    BUDGET OF THE PIPE SYSTEM OF TIMESTEP    7 IN STRESS PERIOD    2
------------------------------------------------------------------------

  TOTAL SIMULATION TIME   170.000000000000      S
 
       CUMULATIVE VALUES (L**3)           RATES THIS TIME STEP (L**3/T)

            IN:                               IN:
     CONSTANT HEAD =   1.5311557          CONSTANT HEAD =   0.0000000    
      FHLQ BC (LQ) =   0.0000000           FHLQ BC (LQ) =   0.0000000    
   MATRIX EXCHANGE =   22.765436        MATRIX EXCHANGE =  0.61379982E-01
     PIPE RECHARGE =   37.000000          PIPE RECHARGE =  0.10000000    
           WELL BC =   0.0000000                WELL BC =   0.0000000    
       PFP STORAGE =   0.0000000            PFP STORAGE =   0.0000000    

     CUMULATIVE IN =   61.296591               TOTAL IN =  0.16137998    

           OUT:                               OUT:
     CONSTANT HEAD =   4.2965912          CONSTANT HEAD =  0.61379982E-01
      FHLQ BC (LQ) =   0.0000000           FHLQ BC (LQ) =   0.0000000    
   MATRIX EXCHANGE =   0.0000000        MATRIX EXCHANGE =   0.0000000    
     PIPE RECHARGE =   0.0000000          PIPE RECHARGE =   0.0000000    
           WELL BC =   57.000000                WELL BC =  0.10000000    
       PFP STORAGE =   0.0000000            PFP STORAGE =   0.0000000    

    CUMULATIVE OUT =   61.296591              TOTAL OUT =  0.16137998    

          IN - OUT =  0.12940827E-07           IN - OUT = -0.14802486E-09
     PERCENT ERROR =  0.00                PERCENT ERROR =  0.00


 
 ------------------------NODE WATER BUDGET-----------------------
  STRESS PERIOD           2  TIME STEP           7
 TOTAL SIMULATION TIME   170.000000000000     
 
 FLOW TO THE NODE IN M^3/D
 
 NODE   FIXED HEAD     RECHARGE        QWELL  MATRIX EXCH      STORAGE      TUBE_IN     TUBE_OUT         CADS     FHLQ(LQ)       CAUCHY   CAUCHY(LQ)          QLH     IN - OUT
   1     0.0000       0.0000       0.0000      0.70130E-02   0.0000       0.0000     -0.70130E-02   0.0000       0.0000       0.0000       0.0000       0.0000     -0.41417E-09
   2   -0.61380E-01   0.0000       0.0000       0.0000       0.0000      0.61380E-01   0.0000       0.0000       0.0000       0.0000       0.0000       0.0000       0.0000    
   3     0.0000       0.0000       0.0000      0.20040E-01   0.0000      0.41340E-01 -0.61380E-01   0.0000       0.0000       0.0000       0.0000       0.0000      0.27583E-09
   4     0.0000      0.10000     -0.10000      0.20829E-01   0.0000      0.13499E-01 -0.34327E-01   0.0000       0.0000       0.0000       0.0000       0.0000     -0.59932E-09
   5     0.0000       0.0000       0.0000      0.13499E-01   0.0000       0.0000     -0.13499E-01   0.0000       0.0000       0.0000       0.0000       0.0000      0.58964E-09
 
 SOLVING FOR HEAD 
  LAMINAR PRECALCULATION
MODFLOW ITER.#  NEWTON-RAPHSON ITER.#   MAXIMUM NODE HEAD CHANGE
         1                   1                  0.0000000000
     1 CALLS TO PCG ROUTINE FOR TIME STEP   8 IN STRESS PERIOD    2
     1 TOTAL ITERATIONS
  LAMINAR PRECALCULATION
MODFLOW ITER.#  NEWTON-RAPHSON ITER.#   MAXIMUM NODE HEAD CHANGE
         1                   1                  0.0000000000

 NO OUTPUT CONTROL FOR STRESS PERIOD    2   TIME STEP   8
 
 
 CFPM1 CRITERION OF CONVERGENCE:     0.1000000E-05
 CFPM1 MAXIMUM NUMBER OF ITERATIONS:   100
 
 
 CFPM1 RESULTS +++++++++++++++++++++++++++++++++++++++++++++++++++++++
 
 STRESS PERIOD/TIME STEP           2           8
 
NUMBER OF NEWTON RHAPSON ITERATIONS:     1
 
 ------- RESULTS OF FLOW CALCULATION -------
 
NODE# NODE HEAD[M] MATRIX HEAD [M] EXCHANGE [M^3/D]    CADSFLOW            PFPSFLOW         DIRECT RECHARGE        QWELL         FHLQ            CAUCHY         CAUCHY LQ               QLH              QFIX
    1  20.00000      20.00009       -0.7013043E-02       0.000000           0.000000           0.000000        0.000000         0.000000         0.000000         0.000000         0.000000         0.000000    
    2  20.00    FIX  20.00000           0.0000           0.000000           0.000000           0.000000        0.000000         0.000000         0.000000         0.000000         0.000000       -0.6137999E-01
    3  20.00000      20.00009       -0.2003966E-01       0.000000           0.000000           0.000000        0.000000         0.000000         0.000000         0.000000         0.000000         0.000000    
    4  20.00000      20.00013       -0.2082868E-01       0.000000           0.000000          0.1000000       -.1000000         0.000000         0.000000         0.000000         0.000000         0.000000    
    5  20.00000      20.00017       -0.1349861E-01       0.000000           0.000000           0.000000        0.000000         0.000000         0.000000         0.000000         0.000000         0.000000    
 
TUBE  B  E  FLOW          Q [M^3/D]       DIAM.[M]        LEN.[M]        RE         RESIDENCE TIME [D]
   1   1   3   LAMI.         0.00701        0.10000       10.00000        1.15717       11.19911
   2   2   3   LAMI.        -0.06138        0.10000       10.00000       10.12789        1.27957
   3   3   4   LAMI.        -0.03433        0.10000       10.00000        5.66411        2.28797
   4   4   5   LAMI.        -0.01350        0.10000       10.00000        2.22731        5.81836
 

    BUDGET OF THE PIPE SYSTEM OF TIMESTEP    8 IN STRESS PERIOD    2
------------------------------------------------------------------------

  TOTAL SIMULATION TIME   180.000000000000      S
 
       CUMULATIVE VALUES (L**3)           RATES THIS TIME STEP (L**3/T)

            IN:                               IN:
     CONSTANT HEAD =   1.5311557          CONSTANT HEAD =   0.0000000    
      FHLQ BC (LQ) =   0.0000000           FHLQ BC (LQ) =   0.0000000    
   MATRIX EXCHANGE =   23.379235        MATRIX EXCHANGE =  0.61379991E-01
     PIPE RECHARGE =   38.000000          PIPE RECHARGE =  0.10000000    
           WELL BC =   0.0000000                WELL BC =   0.0000000    
       PFP STORAGE =   0.0000000            PFP STORAGE =   0.0000000    

     CUMULATIVE IN =   62.910391               TOTAL IN =  0.16137999    

           OUT:                               OUT:
     CONSTANT HEAD =   4.9103911          CONSTANT HEAD =  0.61379991E-01
      FHLQ BC (LQ) =   0.0000000           FHLQ BC (LQ) =   0.0000000    
   MATRIX EXCHANGE =   0.0000000        MATRIX EXCHANGE =   0.0000000    
     PIPE RECHARGE =   0.0000000          PIPE RECHARGE =   0.0000000    
           WELL BC =   58.000000                WELL BC =  0.10000000    
       PFP STORAGE =   0.0000000            PFP STORAGE =   0.0000000    

    CUMULATIVE OUT =   62.910391              TOTAL OUT =  0.16137999    

          IN - OUT =  0.12747037E-07           IN - OUT = -0.19379560E-10
     PERCENT ERROR =  0.00                PERCENT ERROR =  0.00


 
 ------------------------NODE WATER BUDGET-----------------------
  STRESS PERIOD           2  TIME STEP           8
 TOTAL SIMULATION TIME   180.000000000000     
 
 FLOW TO THE NODE IN M^3/D
 
 NODE   FIXED HEAD     RECHARGE        QWELL  MATRIX EXCH      STORAGE      TUBE_IN     TUBE_OUT         CADS     FHLQ(LQ)       CAUCHY   CAUCHY(LQ)          QLH     IN - OUT
   1     0.0000       0.0000       0.0000      0.70130E-02   0.0000       0.0000     -0.70130E-02   0.0000       0.0000       0.0000       0.0000       0.0000     -0.15710E-09
   2   -0.61380E-01   0.0000       0.0000       0.0000       0.0000      0.61380E-01   0.0000       0.0000       0.0000       0.0000       0.0000       0.0000       0.0000    
   3     0.0000       0.0000       0.0000      0.20040E-01   0.0000      0.41340E-01 -0.61380E-01   0.0000       0.0000       0.0000       0.0000       0.0000     -0.10337E-08
   4     0.0000      0.10000     -0.10000      0.20829E-01   0.0000      0.13499E-01 -0.34327E-01   0.0000       0.0000       0.0000       0.0000       0.0000      0.89572E-09
   5     0.0000       0.0000       0.0000      0.13499E-01   0.0000       0.0000     -0.13499E-01   0.0000       0.0000       0.0000       0.0000       0.0000      0.27571E-09
 
 SOLVING FOR HEAD 
  LAMINAR PRECALCULATION
MODFLOW ITER.#  NEWTON-RAPHSON ITER.#   MAXIMUM NODE HEAD CHANGE
         1                   1                  0.0000000000
     1 CALLS TO PCG ROUTINE FOR TIME STEP   9 IN STRESS PERIOD    2
     1 TOTAL ITERATIONS
  LAMINAR PRECALCULATION
MODFLOW ITER.#  NEWTON-RAPHSON ITER.#   MAXIMUM NODE HEAD CHANGE
         1                   1                  0.0000000000

 NO OUTPUT CONTROL FOR STRESS PERIOD    2   TIME STEP   9
 
 
 CFPM1 CRITERION OF CONVERGENCE:     0.1000000E-05
 CFPM1 MAXIMUM NUMBER OF ITERATIONS:   100
 
 
 CFPM1 RESULTS +++++++++++++++++++++++++++++++++++++++++++++++++++++++
 
 STRESS PERIOD/TIME STEP           2           9
 
NUMBER OF NEWTON RHAPSON ITERATIONS:     1
 
 ------- RESULTS OF FLOW CALCULATION -------
 
NODE# NODE HEAD[M] MATRIX HEAD [M] EXCHANGE [M^3/D]    CADSFLOW            PFPSFLOW         DIRECT RECHARGE        QWELL         FHLQ            CAUCHY         CAUCHY LQ               QLH              QFIX
    1  20.00000      20.00009       -0.7013044E-02       0.000000           0.000000           0.000000        0.000000         0.000000         0.000000         0.000000         0.000000         0.000000    
    2  20.00    FIX  20.00000           0.0000           0.000000           0.000000           0.000000        0.000000         0.000000         0.000000         0.000000         0.000000       -0.6138000E-01
    3  20.00000      20.00009       -0.2003966E-01       0.000000           0.000000           0.000000        0.000000         0.000000         0.000000         0.000000         0.000000         0.000000    
    4  20.00000      20.00013       -0.2082868E-01       0.000000           0.000000          0.1000000       -.1000000         0.000000         0.000000         0.000000         0.000000         0.000000    
    5  20.00000      20.00017       -0.1349861E-01       0.000000           0.000000           0.000000        0.000000         0.000000         0.000000         0.000000         0.000000         0.000000    
 
TUBE  B  E  FLOW          Q [M^3/D]       DIAM.[M]        LEN.[M]        RE         RESIDENCE TIME [D]
   1   1   3   LAMI.         0.00701        0.10000       10.00000        1.15717       11.19910
   2   2   3   LAMI.        -0.06138        0.10000       10.00000       10.12789        1.27957
   3   3   4   LAMI.        -0.03433        0.10000       10.00000        5.66411        2.28797
   4   4   5   LAMI.        -0.01350        0.10000       10.00000        2.22731        5.81836
 

    BUDGET OF THE PIPE SYSTEM OF TIMESTEP    9 IN STRESS PERIOD    2
------------------------------------------------------------------------

  TOTAL SIMULATION TIME   190.000000000000      S
 
       CUMULATIVE VALUES (L**3)           RATES THIS TIME STEP (L**3/T)

            IN:                               IN:
     CONSTANT HEAD =   1.5311557          CONSTANT HEAD =   0.0000000    
      FHLQ BC (LQ) =   0.0000000           FHLQ BC (LQ) =   0.0000000    
   MATRIX EXCHANGE =   23.993035        MATRIX EXCHANGE =  0.61379999E-01
     PIPE RECHARGE =   39.000000          PIPE RECHARGE =  0.10000000    
           WELL BC =   0.0000000                WELL BC =   0.0000000    
       PFP STORAGE =   0.0000000            PFP STORAGE =   0.0000000    

     CUMULATIVE IN =   64.524191               TOTAL IN =  0.16138000    

           OUT:                               OUT:
     CONSTANT HEAD =   5.5241911          CONSTANT HEAD =  0.61379999E-01
      FHLQ BC (LQ) =   0.0000000           FHLQ BC (LQ) =   0.0000000    
   MATRIX EXCHANGE =   0.0000000        MATRIX EXCHANGE =   0.0000000    
     PIPE RECHARGE =   0.0000000          PIPE RECHARGE =   0.0000000    
           WELL BC =   59.000000                WELL BC =  0.10000000    
       PFP STORAGE =   0.0000000            PFP STORAGE =   0.0000000    

    CUMULATIVE OUT =   64.524191              TOTAL OUT =  0.16138000    

          IN - OUT =  0.13800626E-07           IN - OUT =  0.10535932E-09
     PERCENT ERROR =  0.00                PERCENT ERROR =  0.00


 
 ------------------------NODE WATER BUDGET-----------------------
  STRESS PERIOD           2  TIME STEP           9
 TOTAL SIMULATION TIME   190.000000000000     
 
 FLOW TO THE NODE IN M^3/D
 
 NODE   FIXED HEAD     RECHARGE        QWELL  MATRIX EXCH      STORAGE      TUBE_IN     TUBE_OUT         CADS     FHLQ(LQ)       CAUCHY   CAUCHY(LQ)          QLH     IN - OUT
   1     0.0000       0.0000       0.0000      0.70130E-02   0.0000       0.0000     -0.70130E-02   0.0000       0.0000       0.0000       0.0000       0.0000      0.12118E-09
   2   -0.61380E-01   0.0000       0.0000       0.0000       0.0000      0.61380E-01   0.0000       0.0000       0.0000       0.0000       0.0000       0.0000       0.0000    
   3     0.0000       0.0000       0.0000      0.20040E-01   0.0000      0.41340E-01 -0.61380E-01   0.0000       0.0000       0.0000       0.0000       0.0000     -0.54124E-09
   4     0.0000      0.10000     -0.10000      0.20829E-01   0.0000      0.13499E-01 -0.34327E-01   0.0000       0.0000       0.0000       0.0000       0.0000      0.59889E-10
   5     0.0000       0.0000       0.0000      0.13499E-01   0.0000       0.0000     -0.13499E-01   0.0000       0.0000       0.0000       0.0000       0.0000      0.46553E-09
 
 SOLVING FOR HEAD 
  LAMINAR PRECALCULATION
MODFLOW ITER.#  NEWTON-RAPHSON ITER.#   MAXIMUM NODE HEAD CHANGE
         1                   1                  0.0000000000
     1 CALLS TO PCG ROUTINE FOR TIME STEP  10 IN STRESS PERIOD    2
     1 TOTAL ITERATIONS

 MAXIMUM HEAD CHANGE FOR EACH ITERATION (1 INDICATES THE FIRST INNER ITERATION):

    HEAD CHANGE    HEAD CHANGE    HEAD CHANGE    HEAD CHANGE    HEAD CHANGE 
   LAYER,ROW,COL  LAYER,ROW,COL  LAYER,ROW,COL  LAYER,ROW,COL  LAYER,ROW,COL
 ---------------------------------------------------------------------------
  1  0.3335E-10
   (  3,  1,  4)

 MAXIMUM RESIDUAL FOR EACH ITERATION (1 INDICATES THE FIRST INNER ITERATION):

    RESIDUAL       RESIDUAL       RESIDUAL       RESIDUAL       RESIDUAL    
   LAYER,ROW,COL  LAYER,ROW,COL  LAYER,ROW,COL  LAYER,ROW,COL  LAYER,ROW,COL
 ---------------------------------------------------------------------------
  1 -0.1948E-07
   (  3,  2,  3)


  LAMINAR PRECALCULATION
MODFLOW ITER.#  NEWTON-RAPHSON ITER.#   MAXIMUM NODE HEAD CHANGE
         1                   1                  0.0000000000

 NO OUTPUT CONTROL FOR STRESS PERIOD    2   TIME STEP  10
 
 
 CFPM1 CRITERION OF CONVERGENCE:     0.1000000E-05
 CFPM1 MAXIMUM NUMBER OF ITERATIONS:   100
 
 
 CFPM1 RESULTS +++++++++++++++++++++++++++++++++++++++++++++++++++++++
 
 STRESS PERIOD/TIME STEP           2          10
 
NUMBER OF NEWTON RHAPSON ITERATIONS:     1
 
 ------- RESULTS OF FLOW CALCULATION -------
 
NODE# NODE HEAD[M] MATRIX HEAD [M] EXCHANGE [M^3/D]    CADSFLOW            PFPSFLOW         DIRECT RECHARGE        QWELL         FHLQ            CAUCHY         CAUCHY LQ               QLH              QFIX
    1  20.00000      20.00009       -0.7013045E-02       0.000000           0.000000           0.000000        0.000000         0.000000         0.000000         0.000000         0.000000         0.000000    
    2  20.00    FIX  20.00000           0.0000           0.000000           0.000000           0.000000        0.000000         0.000000         0.000000         0.000000         0.000000       -0.6138000E-01
    3  20.00000      20.00009       -0.2003966E-01       0.000000           0.000000           0.000000        0.000000         0.000000         0.000000         0.000000         0.000000         0.000000    
    4  20.00000      20.00013       -0.2082868E-01       0.000000           0.000000          0.1000000       -.1000000         0.000000         0.000000         0.000000         0.000000         0.000000    
    5  20.00000      20.00017       -0.1349861E-01       0.000000           0.000000           0.000000        0.000000         0.000000         0.000000         0.000000         0.000000         0.000000    
 
TUBE  B  E  FLOW          Q [M^3/D]       DIAM.[M]        LEN.[M]        RE         RESIDENCE TIME [D]
   1   1   3   LAMI.         0.00701        0.10000       10.00000        1.15717       11.19910
   2   2   3   LAMI.        -0.06138        0.10000       10.00000       10.12789        1.27957
   3   3   4   LAMI.        -0.03433        0.10000       10.00000        5.66411        2.28797
   4   4   5   LAMI.        -0.01350        0.10000       10.00000        2.22731        5.81836
 

    BUDGET OF THE PIPE SYSTEM OF TIMESTEP   10 IN STRESS PERIOD    2
------------------------------------------------------------------------

  TOTAL SIMULATION TIME   200.000000000000      S
 
       CUMULATIVE VALUES (L**3)           RATES THIS TIME STEP (L**3/T)

            IN:                               IN:
     CONSTANT HEAD =   1.5311557          CONSTANT HEAD =   0.0000000    
      FHLQ BC (LQ) =   0.0000000           FHLQ BC (LQ) =   0.0000000    
   MATRIX EXCHANGE =   24.606835        MATRIX EXCHANGE =  0.61380002E-01
     PIPE RECHARGE =   40.000000          PIPE RECHARGE =  0.10000000    
           WELL BC =   0.0000000                WELL BC =   0.0000000    
       PFP STORAGE =   0.0000000            PFP STORAGE =   0.0000000    

     CUMULATIVE IN =   66.137991               TOTAL IN =  0.16138000    

           OUT:                               OUT:
     CONSTANT HEAD =   6.1379912          CONSTANT HEAD =  0.61380001E-01
      FHLQ BC (LQ) =   0.0000000           FHLQ BC (LQ) =   0.0000000    
   MATRIX EXCHANGE =   0.0000000        MATRIX EXCHANGE =   0.0000000    
     PIPE RECHARGE =   0.0000000          PIPE RECHARGE =   0.0000000    
           WELL BC =   60.000000                WELL BC =  0.10000000    
       PFP STORAGE =   0.0000000            PFP STORAGE =   0.0000000    

    CUMULATIVE OUT =   66.137991              TOTAL OUT =  0.16138000    

          IN - OUT =  0.23794083E-07           IN - OUT =  0.99934569E-09
     PERCENT ERROR =  0.00                PERCENT ERROR =  0.00


 
 ------------------------NODE WATER BUDGET-----------------------
  STRESS PERIOD           2  TIME STEP          10
 TOTAL SIMULATION TIME   200.000000000000     
 
 FLOW TO THE NODE IN M^3/D
 
 NODE   FIXED HEAD     RECHARGE        QWELL  MATRIX EXCH      STORAGE      TUBE_IN     TUBE_OUT         CADS     FHLQ(LQ)       CAUCHY   CAUCHY(LQ)          QLH     IN - OUT
   1     0.0000       0.0000       0.0000      0.70130E-02   0.0000       0.0000     -0.70130E-02   0.0000       0.0000       0.0000       0.0000       0.0000      0.54893E-09
   2   -0.61380E-01   0.0000       0.0000       0.0000       0.0000      0.61380E-01   0.0000       0.0000       0.0000       0.0000       0.0000       0.0000       0.0000    
   3     0.0000       0.0000       0.0000      0.20040E-01   0.0000      0.41340E-01 -0.61380E-01   0.0000       0.0000       0.0000       0.0000       0.0000      0.93371E-09
   4     0.0000      0.10000     -0.10000      0.20829E-01   0.0000      0.13499E-01 -0.34327E-01   0.0000       0.0000       0.0000       0.0000       0.0000     -0.98351E-09
   5     0.0000       0.0000       0.0000      0.13499E-01   0.0000       0.0000     -0.13499E-01   0.0000       0.0000       0.0000       0.0000       0.0000      0.50022E-09
1
  VOLUMETRIC BUDGET FOR ENTIRE MODEL AT END OF TIME STEP 10 IN STRESS PERIOD   2
  ------------------------------------------------------------------------------

     CUMULATIVE VOLUMES      L**3       RATES FOR THIS TIME STEP      L**3/T
     ------------------                 ------------------------

           IN:                                      IN:
           ---                                      ---
             STORAGE =       1.9330E-05               STORAGE =           0.0000
       CONSTANT HEAD =           0.0000         CONSTANT HEAD =           0.0000
            RECHARGE =         440.0000              RECHARGE =           1.1000
               PIPES =           0.0000                 PIPES =           0.0000

            TOTAL IN =         440.0000              TOTAL IN =           1.1000

          OUT:                                     OUT:
          ----                                     ----
             STORAGE =       2.8998E-05               STORAGE =       7.6128E-14
       CONSTANT HEAD =         415.3925         CONSTANT HEAD =           1.0386
            RECHARGE =           0.0000              RECHARGE =           0.0000
               PIPES =          24.6068                 PIPES =       6.1380E-02

           TOTAL OUT =         439.9994             TOTAL OUT =           1.1000

            IN - OUT =       6.1394E-04              IN - OUT =       1.6253E-07

 PERCENT DISCREPANCY =           0.00     PERCENT DISCREPANCY =           0.00






          TIME SUMMARY AT END OF TIME STEP  10 IN STRESS PERIOD    2
                    SECONDS     MINUTES      HOURS       DAYS        YEARS
                    -----------------------------------------------------------
   TIME STEP LENGTH 8.64000E+05  14400.      240.00      10.000     2.73785E-02
 STRESS PERIOD TIME 8.64000E+06 1.44000E+05  2400.0      100.00     0.27379    
         TOTAL TIME 1.72800E+07 2.88000E+05  4800.0      200.00     0.54757    
1
1
                            STRESS PERIOD NO.    3, LENGTH =   100.0000    
                            -----------------------------------------------

                              NUMBER OF TIME STEPS =    10

                               MULTIPLIER FOR DELT =     1.000

                            INITIAL TIME STEP SIZE =   10.00000    



                           RECHARGE
 READING ON UNIT   19 WITH FORMAT: (4E15.6)            
 
 CFP1RCH1RP SUBROUTINE READING FROM UNIT           53
 READING INPUT USED TO PARTICIAN RECHARGE AND WELL DATA
 0.0    0.0    0.0    1.0    0.0   
 DATA FOR WELLS:
 0.0    0.0    0.0   -.50    0.0   
 
 SOLVING FOR HEAD 
  LAMINAR PRECALCULATION
TUBE   2 SWITCH LAM -> TURB: LAM_RE (   39.21    ) >= TCRITREY:   20.00     TURB_RE:   111.5    
TUBE   3 SWITCH LAM -> TURB: LAM_RE (   43.74    ) >= TCRITREY:   20.00     TURB_RE:   119.4    
MODFLOW ITER.#  NEWTON-RAPHSON ITER.#   MAXIMUM NODE HEAD CHANGE
    SWITCH NODE  2 WITH Q   0.675873     TO LQ-FLOW WITH   0.500000E-01
    CHANGED    1 CONDUIT NODES DUE TO FHLQ IN STRESS PERIOD      3
         1                   1                  0.0003003878
    CHANGED    1 CONDUIT NODES DUE TO FHLQ IN STRESS PERIOD      3
         1                   2                  0.0000008693
    CHANGED    1 CONDUIT NODES DUE TO FHLQ IN STRESS PERIOD      3
         1                   3                  0.0000004126
MODFLOW ITER.#  NEWTON-RAPHSON ITER.#   MAXIMUM NODE HEAD CHANGE
         2                   1                  0.0000802816
         2                   2                  0.0000000207
         2                   3                  0.0000000013
MODFLOW ITER.#  NEWTON-RAPHSON ITER.#   MAXIMUM NODE HEAD CHANGE
         3                   1                  0.0000047496
         3                   2                  0.0000000000
         3                   3                  0.0000000000
MODFLOW ITER.#  NEWTON-RAPHSON ITER.#   MAXIMUM NODE HEAD CHANGE
         4                   1                  0.0000002813
         4                   2                  0.0000000000
         4                   3                  0.0000000000
MODFLOW ITER.#  NEWTON-RAPHSON ITER.#   MAXIMUM NODE HEAD CHANGE
         5                   1                  0.0000000163
         5                   2                  0.0000000000
         5                   3                  0.0000000000


     5 CALLS TO PCG ROUTINE FOR TIME STEP   1 IN STRESS PERIOD    3
    25 TOTAL ITERATIONS
MODFLOW ITER.#  NEWTON-RAPHSON ITER.#   MAXIMUM NODE HEAD CHANGE
         5                   1                  0.0000000005
         5                   2                  0.0000000000
         5                   3                  0.0000000000

 NO OUTPUT CONTROL FOR STRESS PERIOD    3   TIME STEP   1
 
 
 CFPM1 CRITERION OF CONVERGENCE:     0.1000000E-05
 CFPM1 MAXIMUM NUMBER OF ITERATIONS:   100
 
 
 CFPM1 RESULTS +++++++++++++++++++++++++++++++++++++++++++++++++++++++
 
 STRESS PERIOD/TIME STEP           3           1
 
NUMBER OF NEWTON RHAPSON ITERATIONS:     3
 
 ------- RESULTS OF FLOW CALCULATION -------
 
NODE# NODE HEAD[M] MATRIX HEAD [M] EXCHANGE [M^3/D]    CADSFLOW            PFPSFLOW         DIRECT RECHARGE        QWELL         FHLQ            CAUCHY         CAUCHY LQ               QLH              QFIX
    1  19.99979      20.00017       -0.3016621E-01       0.000000           0.000000           0.000000        0.000000         0.000000         0.000000         0.000000         0.000000         0.000000    
    2  19.99979      20.00000       -0.1685642E-01       0.000000           0.000000           0.000000        0.000000        0.5000000E-01     0.000000         0.000000         0.000000         0.000000    
    3  19.99979      20.00016       -0.8756414E-01       0.000000           0.000000           0.000000        0.000000         0.000000         0.000000         0.000000         0.000000         0.000000    
    4  19.99979      20.00025       -0.7283569E-01       0.000000           0.000000          0.2000000       -.5000000         0.000000         0.000000         0.000000         0.000000         0.000000    
    5  19.99979      20.00033       -0.4257755E-01       0.000000           0.000000           0.000000        0.000000         0.000000         0.000000         0.000000         0.000000         0.000000    
 
TUBE  B  E  FLOW          Q [M^3/D]       DIAM.[M]        LEN.[M]        RE         RESIDENCE TIME [D]
   1   1   3   LAMI.         0.03017        0.10000       10.00000        4.97752        2.60357
   2   2   3   TURB.         0.06686        0.10000       10.00000       11.03151        1.17475
   3   3   4   TURB.         0.18459        0.10000       10.00000       30.45738        0.42549
   4   4   5   LAMI.        -0.04258        0.10000       10.00000        7.02543        1.84463
 

    BUDGET OF THE PIPE SYSTEM OF TIMESTEP    1 IN STRESS PERIOD    3
------------------------------------------------------------------------

  TOTAL SIMULATION TIME   210.000000000000      S
 
       CUMULATIVE VALUES (L**3)           RATES THIS TIME STEP (L**3/T)

            IN:                               IN:
     CONSTANT HEAD =   1.5311557          CONSTANT HEAD =   0.0000000    
      FHLQ BC (LQ) =  0.50000000           FHLQ BC (LQ) =  0.50000000E-01
   MATRIX EXCHANGE =   27.106835        MATRIX EXCHANGE =  0.25000000    
     PIPE RECHARGE =   42.000000          PIPE RECHARGE =  0.20000000    
           WELL BC =   0.0000000                WELL BC =   0.0000000    
       PFP STORAGE =   0.0000000            PFP STORAGE =   0.0000000    

     CUMULATIVE IN =   71.137991               TOTAL IN =  0.50000000    

           OUT:                               OUT:
     CONSTANT HEAD =   6.1379912          CONSTANT HEAD =   0.0000000    
      FHLQ BC (LQ) =   0.0000000           FHLQ BC (LQ) =   0.0000000    
   MATRIX EXCHANGE =   0.0000000        MATRIX EXCHANGE =   0.0000000    
     PIPE RECHARGE =   0.0000000          PIPE RECHARGE =   0.0000000    
           WELL BC =   65.000000                WELL BC =  0.50000000    
       PFP STORAGE =   0.0000000            PFP STORAGE =   0.0000000    

    CUMULATIVE OUT =   71.137991              TOTAL OUT =  0.50000000    

          IN - OUT =  0.23798126E-07           IN - OUT =  0.40401016E-12
     PERCENT ERROR =  0.00                PERCENT ERROR =  0.00


 
 ------------------------NODE WATER BUDGET-----------------------
  STRESS PERIOD           3  TIME STEP           1
 TOTAL SIMULATION TIME   210.000000000000     
 
 FLOW TO THE NODE IN M^3/D
 
 NODE   FIXED HEAD     RECHARGE        QWELL  MATRIX EXCH      STORAGE      TUBE_IN     TUBE_OUT         CADS     FHLQ(LQ)       CAUCHY   CAUCHY(LQ)          QLH     IN - OUT
   1     0.0000       0.0000       0.0000      0.30166E-01   0.0000       0.0000     -0.30166E-01   0.0000       0.0000       0.0000       0.0000       0.0000     -0.65214E-09
   2     0.0000       0.0000       0.0000      0.16856E-01   0.0000       0.0000     -0.66856E-01   0.0000      0.50000E-01   0.0000       0.0000       0.0000     -0.15563E-08
   3     0.0000       0.0000       0.0000      0.87564E-01   0.0000      0.97023E-01 -0.18459       0.0000       0.0000       0.0000       0.0000       0.0000      0.34503E-08
   4     0.0000      0.20000     -0.50000      0.72836E-01   0.0000      0.22716       0.0000       0.0000       0.0000       0.0000       0.0000       0.0000     -0.15011E-08
   5     0.0000       0.0000       0.0000      0.42578E-01   0.0000       0.0000     -0.42578E-01   0.0000       0.0000       0.0000       0.0000       0.0000      0.25958E-09
 
 SOLVING FOR HEAD 
MODFLOW ITER.#  NEWTON-RAPHSON ITER.#   MAXIMUM NODE HEAD CHANGE
         1                   1                  0.0000000000
         1                   2                  0.0000000000
         1                   3                  0.0000000000
     1 CALLS TO PCG ROUTINE FOR TIME STEP   2 IN STRESS PERIOD    3
     1 TOTAL ITERATIONS
MODFLOW ITER.#  NEWTON-RAPHSON ITER.#   MAXIMUM NODE HEAD CHANGE
         1                   1                  0.0000000003
         1                   2                  0.0000000000
         1                   3                  0.0000000000

 NO OUTPUT CONTROL FOR STRESS PERIOD    3   TIME STEP   2
 
 
 CFPM1 CRITERION OF CONVERGENCE:     0.1000000E-05
 CFPM1 MAXIMUM NUMBER OF ITERATIONS:   100
 
 
 CFPM1 RESULTS +++++++++++++++++++++++++++++++++++++++++++++++++++++++
 
 STRESS PERIOD/TIME STEP           3           2
 
NUMBER OF NEWTON RHAPSON ITERATIONS:     3
 
 ------- RESULTS OF FLOW CALCULATION -------
 
NODE# NODE HEAD[M] MATRIX HEAD [M] EXCHANGE [M^3/D]    CADSFLOW            PFPSFLOW         DIRECT RECHARGE        QWELL         FHLQ            CAUCHY         CAUCHY LQ               QLH              QFIX
    1  19.99979      20.00017       -0.3016622E-01       0.000000           0.000000           0.000000        0.000000         0.000000         0.000000         0.000000         0.000000         0.000000    
    2  19.99979      20.00000       -0.1685640E-01       0.000000           0.000000           0.000000        0.000000        0.5000000E-01     0.000000         0.000000         0.000000         0.000000    
    3  19.99979      20.00016       -0.8756414E-01       0.000000           0.000000           0.000000        0.000000         0.000000         0.000000         0.000000         0.000000         0.000000    
    4  19.99979      20.00025       -0.7283567E-01       0.000000           0.000000          0.2000000       -.5000000         0.000000         0.000000         0.000000         0.000000         0.000000    
    5  19.99979      20.00033       -0.4257757E-01       0.000000           0.000000           0.000000        0.000000         0.000000         0.000000         0.000000         0.000000         0.000000    
 
TUBE  B  E  FLOW          Q [M^3/D]       DIAM.[M]        LEN.[M]        RE         RESIDENCE TIME [D]
   1   1   3   LAMI.         0.03017        0.10000       10.00000        4.97752        2.60357
   2   2   3   TURB.         0.06686        0.10000       10.00000       11.03151        1.17475
   3   3   4   TURB.         0.18459        0.10000       10.00000       30.45738        0.42549
   4   4   5   LAMI.        -0.04258        0.10000       10.00000        7.02543        1.84463
 

    BUDGET OF THE PIPE SYSTEM OF TIMESTEP    2 IN STRESS PERIOD    3
------------------------------------------------------------------------

  TOTAL SIMULATION TIME   220.000000000000      S
 
       CUMULATIVE VALUES (L**3)           RATES THIS TIME STEP (L**3/T)

            IN:                               IN:
     CONSTANT HEAD =   1.5311557          CONSTANT HEAD =   0.0000000    
      FHLQ BC (LQ) =   1.0000000           FHLQ BC (LQ) =  0.50000000E-01
   MATRIX EXCHANGE =   29.606835        MATRIX EXCHANGE =  0.25000000    
     PIPE RECHARGE =   44.000000          PIPE RECHARGE =  0.20000000    
           WELL BC =   0.0000000                WELL BC =   0.0000000    
       PFP STORAGE =   0.0000000            PFP STORAGE =   0.0000000    

     CUMULATIVE IN =   76.137991               TOTAL IN =  0.50000000    

           OUT:                               OUT:
     CONSTANT HEAD =   6.1379912          CONSTANT HEAD =   0.0000000    
      FHLQ BC (LQ) =   0.0000000           FHLQ BC (LQ) =   0.0000000    
   MATRIX EXCHANGE =   0.0000000        MATRIX EXCHANGE =   0.0000000    
     PIPE RECHARGE =   0.0000000          PIPE RECHARGE =   0.0000000    
           WELL BC =   70.000000                WELL BC =  0.50000000    
       PFP STORAGE =   0.0000000            PFP STORAGE =   0.0000000    

    CUMULATIVE OUT =   76.137991              TOTAL OUT =  0.50000000    

          IN - OUT =  0.23802169E-07           IN - OUT =  0.40406567E-12
     PERCENT ERROR =  0.00                PERCENT ERROR =  0.00


 
 ------------------------NODE WATER BUDGET-----------------------
  STRESS PERIOD           3  TIME STEP           2
 TOTAL SIMULATION TIME   220.000000000000     
 
 FLOW TO THE NODE IN M^3/D
 
 NODE   FIXED HEAD     RECHARGE        QWELL  MATRIX EXCH      STORAGE      TUBE_IN     TUBE_OUT         CADS     FHLQ(LQ)       CAUCHY   CAUCHY(LQ)          QLH     IN - OUT
   1     0.0000       0.0000       0.0000      0.30166E-01   0.0000       0.0000     -0.30166E-01   0.0000       0.0000       0.0000       0.0000       0.0000     -0.40448E-09
   2     0.0000       0.0000       0.0000      0.16856E-01   0.0000       0.0000     -0.66856E-01   0.0000      0.50000E-01   0.0000       0.0000       0.0000     -0.21387E-08
   3     0.0000       0.0000       0.0000      0.87564E-01   0.0000      0.97023E-01 -0.18459       0.0000       0.0000       0.0000       0.0000       0.0000      0.26310E-08
   4     0.0000      0.20000     -0.50000      0.72836E-01   0.0000      0.22716       0.0000       0.0000       0.0000       0.0000       0.0000       0.0000     -0.25854E-09
   5     0.0000       0.0000       0.0000      0.42578E-01   0.0000       0.0000     -0.42578E-01   0.0000       0.0000       0.0000       0.0000       0.0000      0.17113E-09
 
 SOLVING FOR HEAD 
MODFLOW ITER.#  NEWTON-RAPHSON ITER.#   MAXIMUM NODE HEAD CHANGE
         1                   1                  0.0000000000
         1                   2                  0.0000000000
         1                   3                  0.0000000000
     1 CALLS TO PCG ROUTINE FOR TIME STEP   3 IN STRESS PERIOD    3
     1 TOTAL ITERATIONS
MODFLOW ITER.#  NEWTON-RAPHSON ITER.#   MAXIMUM NODE HEAD CHANGE
         1                   1                  0.0000000003
         1                   2                  0.0000000000
         1                   3                  0.0000000000

 NO OUTPUT CONTROL FOR STRESS PERIOD    3   TIME STEP   3
 
 
 CFPM1 CRITERION OF CONVERGENCE:     0.1000000E-05
 CFPM1 MAXIMUM NUMBER OF ITERATIONS:   100
 
 
 CFPM1 RESULTS +++++++++++++++++++++++++++++++++++++++++++++++++++++++
 
 STRESS PERIOD/TIME STEP           3           3
 
NUMBER OF NEWTON RHAPSON ITERATIONS:     3
 
 ------- RESULTS OF FLOW CALCULATION -------
 
NODE# NODE HEAD[M] MATRIX HEAD [M] EXCHANGE [M^3/D]    CADSFLOW            PFPSFLOW         DIRECT RECHARGE        QWELL         FHLQ            CAUCHY         CAUCHY LQ               QLH              QFIX
    1  19.99979      20.00017       -0.3016622E-01       0.000000           0.000000           0.000000        0.000000         0.000000         0.000000         0.000000         0.000000         0.000000    
    2  19.99979      20.00000       -0.1685638E-01       0.000000           0.000000           0.000000        0.000000        0.5000000E-01     0.000000         0.000000         0.000000         0.000000    
    3  19.99979      20.00016       -0.8756413E-01       0.000000           0.000000           0.000000        0.000000         0.000000         0.000000         0.000000         0.000000         0.000000    
    4  19.99979      20.00025       -0.7283571E-01       0.000000           0.000000          0.2000000       -.5000000         0.000000         0.000000         0.000000         0.000000         0.000000    
    5  19.99979      20.00033       -0.4257757E-01       0.000000           0.000000           0.000000        0.000000         0.000000         0.000000         0.000000         0.000000         0.000000    
 
TUBE  B  E  FLOW          Q [M^3/D]       DIAM.[M]        LEN.[M]        RE         RESIDENCE TIME [D]
   1   1   3   LAMI.         0.03017        0.10000       10.00000        4.97752        2.60357
   2   2   3   TURB.         0.06686        0.10000       10.00000       11.03151        1.17475
   3   3   4   TURB.         0.18459        0.10000       10.00000       30.45738        0.42549
   4   4   5   LAMI.        -0.04258        0.10000       10.00000        7.02543        1.84463
 

    BUDGET OF THE PIPE SYSTEM OF TIMESTEP    3 IN STRESS PERIOD    3
------------------------------------------------------------------------

  TOTAL SIMULATION TIME   230.000000000000      S
 
       CUMULATIVE VALUES (L**3)           RATES THIS TIME STEP (L**3/T)

            IN:                               IN:
     CONSTANT HEAD =   1.5311557          CONSTANT HEAD =   0.0000000    
      FHLQ BC (LQ) =   1.5000000           FHLQ BC (LQ) =  0.50000000E-01
   MATRIX EXCHANGE =   32.106835        MATRIX EXCHANGE =  0.25000000    
     PIPE RECHARGE =   46.000000          PIPE RECHARGE =  0.20000000    
           WELL BC =   0.0000000                WELL BC =   0.0000000    
       PFP STORAGE =   0.0000000            PFP STORAGE =   0.0000000    

     CUMULATIVE IN =   81.137991               TOTAL IN =  0.50000000    

           OUT:                               OUT:
     CONSTANT HEAD =   6.1379912          CONSTANT HEAD =   0.0000000    
      FHLQ BC (LQ) =   0.0000000           FHLQ BC (LQ) =   0.0000000    
   MATRIX EXCHANGE =   0.0000000        MATRIX EXCHANGE =   0.0000000    
     PIPE RECHARGE =   0.0000000          PIPE RECHARGE =   0.0000000    
           WELL BC =   75.000000                WELL BC =  0.50000000    
       PFP STORAGE =   0.0000000            PFP STORAGE =   0.0000000    

    CUMULATIVE OUT =   81.137991              TOTAL OUT =  0.50000000    

          IN - OUT =  0.23797838E-07           IN - OUT = -0.43304249E-12
     PERCENT ERROR =  0.00                PERCENT ERROR =  0.00


 
 ------------------------NODE WATER BUDGET-----------------------
  STRESS PERIOD           3  TIME STEP           3
 TOTAL SIMULATION TIME   230.000000000000     
 
 FLOW TO THE NODE IN M^3/D
 
 NODE   FIXED HEAD     RECHARGE        QWELL  MATRIX EXCH      STORAGE      TUBE_IN     TUBE_OUT         CADS     FHLQ(LQ)       CAUCHY   CAUCHY(LQ)          QLH     IN - OUT
   1     0.0000       0.0000       0.0000      0.30166E-01   0.0000       0.0000     -0.30166E-01   0.0000       0.0000       0.0000       0.0000       0.0000     -0.18301E-10
   2     0.0000       0.0000       0.0000      0.16856E-01   0.0000       0.0000     -0.66856E-01   0.0000      0.50000E-01   0.0000       0.0000       0.0000      0.32814E-08
   3     0.0000       0.0000       0.0000      0.87564E-01   0.0000      0.97023E-01 -0.18459       0.0000       0.0000       0.0000       0.0000       0.0000     -0.29886E-08
   4     0.0000      0.20000     -0.50000      0.72836E-01   0.0000      0.22716       0.0000       0.0000       0.0000       0.0000       0.0000       0.0000     -0.28915E-09
   5     0.0000       0.0000       0.0000      0.42578E-01   0.0000       0.0000     -0.42578E-01   0.0000       0.0000       0.0000       0.0000       0.0000      0.14287E-10
 
 SOLVING FOR HEAD 
MODFLOW ITER.#  NEWTON-RAPHSON ITER.#   MAXIMUM NODE HEAD CHANGE
         1                   1                  0.0000000000
         1                   2                  0.0000000000
         1                   3                  0.0000000000
     1 CALLS TO PCG ROUTINE FOR TIME STEP   4 IN STRESS PERIOD    3
     1 TOTAL ITERATIONS
MODFLOW ITER.#  NEWTON-RAPHSON ITER.#   MAXIMUM NODE HEAD CHANGE
         1                   1                  0.0000000002
         1                   2                  0.0000000000
         1                   3                  0.0000000000

 NO OUTPUT CONTROL FOR STRESS PERIOD    3   TIME STEP   4
 
 
 CFPM1 CRITERION OF CONVERGENCE:     0.1000000E-05
 CFPM1 MAXIMUM NUMBER OF ITERATIONS:   100
 
 
 CFPM1 RESULTS +++++++++++++++++++++++++++++++++++++++++++++++++++++++
 
 STRESS PERIOD/TIME STEP           3           4
 
NUMBER OF NEWTON RHAPSON ITERATIONS:     3
 
 ------- RESULTS OF FLOW CALCULATION -------
 
NODE# NODE HEAD[M] MATRIX HEAD [M] EXCHANGE [M^3/D]    CADSFLOW            PFPSFLOW         DIRECT RECHARGE        QWELL         FHLQ            CAUCHY         CAUCHY LQ               QLH              QFIX
    1  19.99979      20.00017       -0.3016622E-01       0.000000           0.000000           0.000000        0.000000         0.000000         0.000000         0.000000         0.000000         0.000000    
    2  19.99979      20.00000       -0.1685636E-01       0.000000           0.000000           0.000000        0.000000        0.5000000E-01     0.000000         0.000000         0.000000         0.000000    
    3  19.99979      20.00016       -0.8756413E-01       0.000000           0.000000           0.000000        0.000000         0.000000         0.000000         0.000000         0.000000         0.000000    
    4  19.99979      20.00025       -0.7283570E-01       0.000000           0.000000          0.2000000       -.5000000         0.000000         0.000000         0.000000         0.000000         0.000000    
    5  19.99979      20.00033       -0.4257758E-01       0.000000           0.000000           0.000000        0.000000         0.000000         0.000000         0.000000         0.000000         0.000000    
 
TUBE  B  E  FLOW          Q [M^3/D]       DIAM.[M]        LEN.[M]        RE         RESIDENCE TIME [D]
   1   1   3   LAMI.         0.03017        0.10000       10.00000        4.97752        2.60357
   2   2   3   TURB.         0.06686        0.10000       10.00000       11.03150        1.17475
   3   3   4   TURB.         0.18459        0.10000       10.00000       30.45738        0.42549
   4   4   5   LAMI.        -0.04258        0.10000       10.00000        7.02543        1.84463
 

    BUDGET OF THE PIPE SYSTEM OF TIMESTEP    4 IN STRESS PERIOD    3
------------------------------------------------------------------------

  TOTAL SIMULATION TIME   240.000000000000      S
 
       CUMULATIVE VALUES (L**3)           RATES THIS TIME STEP (L**3/T)

            IN:                               IN:
     CONSTANT HEAD =   1.5311557          CONSTANT HEAD =   0.0000000    
      FHLQ BC (LQ) =   2.0000000           FHLQ BC (LQ) =  0.50000000E-01
   MATRIX EXCHANGE =   34.606835        MATRIX EXCHANGE =  0.25000000    
     PIPE RECHARGE =   48.000000          PIPE RECHARGE =  0.20000000    
           WELL BC =   0.0000000                WELL BC =   0.0000000    
       PFP STORAGE =   0.0000000            PFP STORAGE =   0.0000000    

     CUMULATIVE IN =   86.137991               TOTAL IN =  0.50000000    

           OUT:                               OUT:
     CONSTANT HEAD =   6.1379912          CONSTANT HEAD =   0.0000000    
      FHLQ BC (LQ) =   0.0000000           FHLQ BC (LQ) =   0.0000000    
   MATRIX EXCHANGE =   0.0000000        MATRIX EXCHANGE =   0.0000000    
     PIPE RECHARGE =   0.0000000          PIPE RECHARGE =   0.0000000    
           WELL BC =   80.000000                WELL BC =  0.50000000    
       PFP STORAGE =   0.0000000            PFP STORAGE =   0.0000000    

    CUMULATIVE OUT =   86.137991              TOTAL OUT =  0.50000000    

          IN - OUT =  0.23801874E-07           IN - OUT =  0.40401016E-12
     PERCENT ERROR =  0.00                PERCENT ERROR =  0.00


 
 ------------------------NODE WATER BUDGET-----------------------
  STRESS PERIOD           3  TIME STEP           4
 TOTAL SIMULATION TIME   240.000000000000     
 
 FLOW TO THE NODE IN M^3/D
 
 NODE   FIXED HEAD     RECHARGE        QWELL  MATRIX EXCH      STORAGE      TUBE_IN     TUBE_OUT         CADS     FHLQ(LQ)       CAUCHY   CAUCHY(LQ)          QLH     IN - OUT
   1     0.0000       0.0000       0.0000      0.30166E-01   0.0000       0.0000     -0.30166E-01   0.0000       0.0000       0.0000       0.0000       0.0000      0.10260E-09
   2     0.0000       0.0000       0.0000      0.16856E-01   0.0000       0.0000     -0.66856E-01   0.0000      0.50000E-01   0.0000       0.0000       0.0000      0.53958E-09
   3     0.0000       0.0000       0.0000      0.87564E-01   0.0000      0.97023E-01 -0.18459       0.0000       0.0000       0.0000       0.0000       0.0000      0.23963E-09
   4     0.0000      0.20000     -0.50000      0.72836E-01   0.0000      0.22716       0.0000       0.0000       0.0000       0.0000       0.0000       0.0000     -0.52485E-09
   5     0.0000       0.0000       0.0000      0.42578E-01   0.0000       0.0000     -0.42578E-01   0.0000       0.0000       0.0000       0.0000       0.0000     -0.35655E-09
 
 SOLVING FOR HEAD 
MODFLOW ITER.#  NEWTON-RAPHSON ITER.#   MAXIMUM NODE HEAD CHANGE
         1                   1                  0.0000000000
         1                   2                  0.0000000000
         1                   3                  0.0000000000
     1 CALLS TO PCG ROUTINE FOR TIME STEP   5 IN STRESS PERIOD    3
     1 TOTAL ITERATIONS

 MAXIMUM HEAD CHANGE FOR EACH ITERATION (1 INDICATES THE FIRST INNER ITERATION):

    HEAD CHANGE    HEAD CHANGE    HEAD CHANGE    HEAD CHANGE    HEAD CHANGE 
   LAYER,ROW,COL  LAYER,ROW,COL  LAYER,ROW,COL  LAYER,ROW,COL  LAYER,ROW,COL
 ---------------------------------------------------------------------------
  1 -0.2555E-09
   (  2,  1,  4)

 MAXIMUM RESIDUAL FOR EACH ITERATION (1 INDICATES THE FIRST INNER ITERATION):

    RESIDUAL       RESIDUAL       RESIDUAL       RESIDUAL       RESIDUAL    
   LAYER,ROW,COL  LAYER,ROW,COL  LAYER,ROW,COL  LAYER,ROW,COL  LAYER,ROW,COL
 ---------------------------------------------------------------------------
  1 -0.2574E-06
   (  3,  3,  2)


MODFLOW ITER.#  NEWTON-RAPHSON ITER.#   MAXIMUM NODE HEAD CHANGE
         1                   1                  0.0000000001
         1                   2                  0.0000000000
         1                   3                  0.0000000000

 NO OUTPUT CONTROL FOR STRESS PERIOD    3   TIME STEP   5
 
 
 CFPM1 CRITERION OF CONVERGENCE:     0.1000000E-05
 CFPM1 MAXIMUM NUMBER OF ITERATIONS:   100
 
 
 CFPM1 RESULTS +++++++++++++++++++++++++++++++++++++++++++++++++++++++
 
 STRESS PERIOD/TIME STEP           3           5
 
NUMBER OF NEWTON RHAPSON ITERATIONS:     3
 
 ------- RESULTS OF FLOW CALCULATION -------
 
NODE# NODE HEAD[M] MATRIX HEAD [M] EXCHANGE [M^3/D]    CADSFLOW            PFPSFLOW         DIRECT RECHARGE        QWELL         FHLQ            CAUCHY         CAUCHY LQ               QLH              QFIX
    1  19.99979      20.00017       -0.3016622E-01       0.000000           0.000000           0.000000        0.000000         0.000000         0.000000         0.000000         0.000000         0.000000    
    2  19.99979      20.00000       -0.1685635E-01       0.000000           0.000000           0.000000        0.000000        0.5000000E-01     0.000000         0.000000         0.000000         0.000000    
    3  19.99979      20.00016       -0.8756413E-01       0.000000           0.000000           0.000000        0.000000         0.000000         0.000000         0.000000         0.000000         0.000000    
    4  19.99979      20.00025       -0.7283571E-01       0.000000           0.000000          0.2000000       -.5000000         0.000000         0.000000         0.000000         0.000000         0.000000    
    5  19.99979      20.00033       -0.4257758E-01       0.000000           0.000000           0.000000        0.000000         0.000000         0.000000         0.000000         0.000000         0.000000    
 
TUBE  B  E  FLOW          Q [M^3/D]       DIAM.[M]        LEN.[M]        RE         RESIDENCE TIME [D]
   1   1   3   LAMI.         0.03017        0.10000       10.00000        4.97752        2.60357
   2   2   3   TURB.         0.06686        0.10000       10.00000       11.03150        1.17475
   3   3   4   TURB.         0.18459        0.10000       10.00000       30.45737        0.42549
   4   4   5   LAMI.        -0.04258        0.10000       10.00000        7.02543        1.84463
 

    BUDGET OF THE PIPE SYSTEM OF TIMESTEP    5 IN STRESS PERIOD    3
------------------------------------------------------------------------

  TOTAL SIMULATION TIME   250.000000000000      S
 
       CUMULATIVE VALUES (L**3)           RATES THIS TIME STEP (L**3/T)

            IN:                               IN:
     CONSTANT HEAD =   1.5311557          CONSTANT HEAD =   0.0000000    
      FHLQ BC (LQ) =   2.5000000           FHLQ BC (LQ) =  0.50000000E-01
   MATRIX EXCHANGE =   37.106835        MATRIX EXCHANGE =  0.25000000    
     PIPE RECHARGE =   50.000000          PIPE RECHARGE =  0.20000000    
           WELL BC =   0.0000000                WELL BC =   0.0000000    
       PFP STORAGE =   0.0000000            PFP STORAGE =   0.0000000    

     CUMULATIVE IN =   91.137991               TOTAL IN =  0.50000000    

           OUT:                               OUT:
     CONSTANT HEAD =   6.1379912          CONSTANT HEAD =   0.0000000    
      FHLQ BC (LQ) =   0.0000000           FHLQ BC (LQ) =   0.0000000    
   MATRIX EXCHANGE =   0.0000000        MATRIX EXCHANGE =   0.0000000    
     PIPE RECHARGE =   0.0000000          PIPE RECHARGE =   0.0000000    
           WELL BC =   85.000000                WELL BC =  0.50000000    
       PFP STORAGE =   0.0000000            PFP STORAGE =   0.0000000    

    CUMULATIVE OUT =   91.137991              TOTAL OUT =  0.50000000    

          IN - OUT =  0.23803125E-07           IN - OUT =  0.12501111E-12
     PERCENT ERROR =  0.00                PERCENT ERROR =  0.00


 
 ------------------------NODE WATER BUDGET-----------------------
  STRESS PERIOD           3  TIME STEP           5
 TOTAL SIMULATION TIME   250.000000000000     
 
 FLOW TO THE NODE IN M^3/D
 
 NODE   FIXED HEAD     RECHARGE        QWELL  MATRIX EXCH      STORAGE      TUBE_IN     TUBE_OUT         CADS     FHLQ(LQ)       CAUCHY   CAUCHY(LQ)          QLH     IN - OUT
   1     0.0000       0.0000       0.0000      0.30166E-01   0.0000       0.0000     -0.30166E-01   0.0000       0.0000       0.0000       0.0000       0.0000      0.30574E-09
   2     0.0000       0.0000       0.0000      0.16856E-01   0.0000       0.0000     -0.66856E-01   0.0000      0.50000E-01   0.0000       0.0000       0.0000      0.62102E-09
   3     0.0000       0.0000       0.0000      0.87564E-01   0.0000      0.97023E-01 -0.18459       0.0000       0.0000       0.0000       0.0000       0.0000     -0.20613E-08
   4     0.0000      0.20000     -0.50000      0.72836E-01   0.0000      0.22716       0.0000       0.0000       0.0000       0.0000       0.0000       0.0000      0.12455E-08
   5     0.0000       0.0000       0.0000      0.42578E-01   0.0000       0.0000     -0.42578E-01   0.0000       0.0000       0.0000       0.0000       0.0000     -0.11081E-09
 
 SOLVING FOR HEAD 
MODFLOW ITER.#  NEWTON-RAPHSON ITER.#   MAXIMUM NODE HEAD CHANGE
         1                   1                  0.0000000000
         1                   2                  0.0000000000
         1                   3                  0.0000000000
     1 CALLS TO PCG ROUTINE FOR TIME STEP   6 IN STRESS PERIOD    3
     1 TOTAL ITERATIONS
MODFLOW ITER.#  NEWTON-RAPHSON ITER.#   MAXIMUM NODE HEAD CHANGE
         1                   1                  0.0000000001
         1                   2                  0.0000000000
         1                   3                  0.0000000000

 NO OUTPUT CONTROL FOR STRESS PERIOD    3   TIME STEP   6
 
 
 CFPM1 CRITERION OF CONVERGENCE:     0.1000000E-05
 CFPM1 MAXIMUM NUMBER OF ITERATIONS:   100
 
 
 CFPM1 RESULTS +++++++++++++++++++++++++++++++++++++++++++++++++++++++
 
 STRESS PERIOD/TIME STEP           3           6
 
NUMBER OF NEWTON RHAPSON ITERATIONS:     3
 
 ------- RESULTS OF FLOW CALCULATION -------
 
NODE# NODE HEAD[M] MATRIX HEAD [M] EXCHANGE [M^3/D]    CADSFLOW            PFPSFLOW         DIRECT RECHARGE        QWELL         FHLQ            CAUCHY         CAUCHY LQ               QLH              QFIX
    1  19.99979      20.00017       -0.3016622E-01       0.000000           0.000000           0.000000        0.000000         0.000000         0.000000         0.000000         0.000000         0.000000    
    2  19.99979      20.00000       -0.1685635E-01       0.000000           0.000000           0.000000        0.000000        0.5000000E-01     0.000000         0.000000         0.000000         0.000000    
    3  19.99979      20.00016       -0.8756414E-01       0.000000           0.000000           0.000000        0.000000         0.000000         0.000000         0.000000         0.000000         0.000000    
    4  19.99979      20.00025       -0.7283571E-01       0.000000           0.000000          0.2000000       -.5000000         0.000000         0.000000         0.000000         0.000000         0.000000    
    5  19.99979      20.00033       -0.4257758E-01       0.000000           0.000000           0.000000        0.000000         0.000000         0.000000         0.000000         0.000000         0.000000    
 
TUBE  B  E  FLOW          Q [M^3/D]       DIAM.[M]        LEN.[M]        RE         RESIDENCE TIME [D]
   1   1   3   LAMI.         0.03017        0.10000       10.00000        4.97752        2.60357
   2   2   3   TURB.         0.06686        0.10000       10.00000       11.03150        1.17475
   3   3   4   TURB.         0.18459        0.10000       10.00000       30.45737        0.42549
   4   4   5   LAMI.        -0.04258        0.10000       10.00000        7.02543        1.84463
 

    BUDGET OF THE PIPE SYSTEM OF TIMESTEP    6 IN STRESS PERIOD    3
------------------------------------------------------------------------

  TOTAL SIMULATION TIME   260.000000000000      S
 
       CUMULATIVE VALUES (L**3)           RATES THIS TIME STEP (L**3/T)

            IN:                               IN:
     CONSTANT HEAD =   1.5311557          CONSTANT HEAD =   0.0000000    
      FHLQ BC (LQ) =   3.0000000           FHLQ BC (LQ) =  0.50000000E-01
   MATRIX EXCHANGE =   39.606835        MATRIX EXCHANGE =  0.25000000    
     PIPE RECHARGE =   52.000000          PIPE RECHARGE =  0.20000000    
           WELL BC =   0.0000000                WELL BC =   0.0000000    
       PFP STORAGE =   0.0000000            PFP STORAGE =   0.0000000    

     CUMULATIVE IN =   96.137991               TOTAL IN =  0.50000000    

           OUT:                               OUT:
     CONSTANT HEAD =   6.1379912          CONSTANT HEAD =   0.0000000    
      FHLQ BC (LQ) =   0.0000000           FHLQ BC (LQ) =   0.0000000    
   MATRIX EXCHANGE =   0.0000000        MATRIX EXCHANGE =   0.0000000    
     PIPE RECHARGE =   0.0000000          PIPE RECHARGE =   0.0000000    
           WELL BC =   90.000000                WELL BC =  0.50000000    
       PFP STORAGE =   0.0000000            PFP STORAGE =   0.0000000    

    CUMULATIVE OUT =   96.137991              TOTAL OUT =  0.50000000    

          IN - OUT =  0.23807161E-07           IN - OUT =  0.40406567E-12
     PERCENT ERROR =  0.00                PERCENT ERROR =  0.00


 
 ------------------------NODE WATER BUDGET-----------------------
  STRESS PERIOD           3  TIME STEP           6
 TOTAL SIMULATION TIME   260.000000000000     
 
 FLOW TO THE NODE IN M^3/D
 
 NODE   FIXED HEAD     RECHARGE        QWELL  MATRIX EXCH      STORAGE      TUBE_IN     TUBE_OUT         CADS     FHLQ(LQ)       CAUCHY   CAUCHY(LQ)          QLH     IN - OUT
   1     0.0000       0.0000       0.0000      0.30166E-01   0.0000       0.0000     -0.30166E-01   0.0000       0.0000       0.0000       0.0000       0.0000      0.30239E-09
   2     0.0000       0.0000       0.0000      0.16856E-01   0.0000       0.0000     -0.66856E-01   0.0000      0.50000E-01   0.0000       0.0000       0.0000      0.25137E-10
   3     0.0000       0.0000       0.0000      0.87564E-01   0.0000      0.97023E-01 -0.18459       0.0000       0.0000       0.0000       0.0000       0.0000     -0.11940E-08
   4     0.0000      0.20000     -0.50000      0.72836E-01   0.0000      0.22716       0.0000       0.0000       0.0000       0.0000       0.0000       0.0000      0.13826E-08
   5     0.0000       0.0000       0.0000      0.42578E-01   0.0000       0.0000     -0.42578E-01   0.0000       0.0000       0.0000       0.0000       0.0000     -0.51573E-09
 
 SOLVING FOR HEAD 
MODFLOW ITER.#  NEWTON-RAPHSON ITER.#   MAXIMUM NODE HEAD CHANGE
         1                   1                  0.0000000000
         1                   2                  0.0000000000
         1                   3                  0.0000000000
     1 CALLS TO PCG ROUTINE FOR TIME STEP   7 IN STRESS PERIOD    3
     1 TOTAL ITERATIONS
MODFLOW ITER.#  NEWTON-RAPHSON ITER.#   MAXIMUM NODE HEAD CHANGE
         1                   1                  0.0000000001
         1                   2                  0.0000000000
         1                   3                  0.0000000000

 NO OUTPUT CONTROL FOR STRESS PERIOD    3   TIME STEP   7
 
 
 CFPM1 CRITERION OF CONVERGENCE:     0.1000000E-05
 CFPM1 MAXIMUM NUMBER OF ITERATIONS:   100
 
 
 CFPM1 RESULTS +++++++++++++++++++++++++++++++++++++++++++++++++++++++
 
 STRESS PERIOD/TIME STEP           3           7
 
NUMBER OF NEWTON RHAPSON ITERATIONS:     3
 
 ------- RESULTS OF FLOW CALCULATION -------
 
NODE# NODE HEAD[M] MATRIX HEAD [M] EXCHANGE [M^3/D]    CADSFLOW            PFPSFLOW         DIRECT RECHARGE        QWELL         FHLQ            CAUCHY         CAUCHY LQ               QLH              QFIX
    1  19.99979      20.00017       -0.3016622E-01       0.000000           0.000000           0.000000        0.000000         0.000000         0.000000         0.000000         0.000000         0.000000    
    2  19.99979      20.00000       -0.1685634E-01       0.000000           0.000000           0.000000        0.000000        0.5000000E-01     0.000000         0.000000         0.000000         0.000000    
    3  19.99979      20.00016       -0.8756413E-01       0.000000           0.000000           0.000000        0.000000         0.000000         0.000000         0.000000         0.000000         0.000000    
    4  19.99979      20.00025       -0.7283572E-01       0.000000           0.000000          0.2000000       -.5000000         0.000000         0.000000         0.000000         0.000000         0.000000    
    5  19.99979      20.00033       -0.4257758E-01       0.000000           0.000000           0.000000        0.000000         0.000000         0.000000         0.000000         0.000000         0.000000    
 
TUBE  B  E  FLOW          Q [M^3/D]       DIAM.[M]        LEN.[M]        RE         RESIDENCE TIME [D]
   1   1   3   LAMI.         0.03017        0.10000       10.00000        4.97752        2.60357
   2   2   3   TURB.         0.06686        0.10000       10.00000       11.03150        1.17475
   3   3   4   TURB.         0.18459        0.10000       10.00000       30.45737        0.42549
   4   4   5   LAMI.        -0.04258        0.10000       10.00000        7.02543        1.84463
 

    BUDGET OF THE PIPE SYSTEM OF TIMESTEP    7 IN STRESS PERIOD    3
------------------------------------------------------------------------

  TOTAL SIMULATION TIME   270.000000000000      S
 
       CUMULATIVE VALUES (L**3)           RATES THIS TIME STEP (L**3/T)

            IN:                               IN:
     CONSTANT HEAD =   1.5311557          CONSTANT HEAD =   0.0000000    
      FHLQ BC (LQ) =   3.5000000           FHLQ BC (LQ) =  0.50000000E-01
   MATRIX EXCHANGE =   42.106835        MATRIX EXCHANGE =  0.25000000    
     PIPE RECHARGE =   54.000000          PIPE RECHARGE =  0.20000000    
           WELL BC =   0.0000000                WELL BC =   0.0000000    
       PFP STORAGE =   0.0000000            PFP STORAGE =   0.0000000    

     CUMULATIVE IN =   101.13799               TOTAL IN =  0.50000000    

           OUT:                               OUT:
     CONSTANT HEAD =   6.1379912          CONSTANT HEAD =   0.0000000    
      FHLQ BC (LQ) =   0.0000000           FHLQ BC (LQ) =   0.0000000    
   MATRIX EXCHANGE =   0.0000000        MATRIX EXCHANGE =   0.0000000    
     PIPE RECHARGE =   0.0000000          PIPE RECHARGE =   0.0000000    
           WELL BC =   95.000000                WELL BC =  0.50000000    
       PFP STORAGE =   0.0000000            PFP STORAGE =   0.0000000    

    CUMULATIVE OUT =   101.13799              TOTAL OUT =  0.50000000    

          IN - OUT =  0.23805626E-07           IN - OUT = -0.15404344E-12
     PERCENT ERROR =  0.00                PERCENT ERROR =  0.00


 
 ------------------------NODE WATER BUDGET-----------------------
  STRESS PERIOD           3  TIME STEP           7
 TOTAL SIMULATION TIME   270.000000000000     
 
 FLOW TO THE NODE IN M^3/D
 
 NODE   FIXED HEAD     RECHARGE        QWELL  MATRIX EXCH      STORAGE      TUBE_IN     TUBE_OUT         CADS     FHLQ(LQ)       CAUCHY   CAUCHY(LQ)          QLH     IN - OUT
   1     0.0000       0.0000       0.0000      0.30166E-01   0.0000       0.0000     -0.30166E-01   0.0000       0.0000       0.0000       0.0000       0.0000      0.39168E-09
   2     0.0000       0.0000       0.0000      0.16856E-01   0.0000       0.0000     -0.66856E-01   0.0000      0.50000E-01   0.0000       0.0000       0.0000      0.10267E-08
   3     0.0000       0.0000       0.0000      0.87564E-01   0.0000      0.97023E-01 -0.18459       0.0000       0.0000       0.0000       0.0000       0.0000     -0.32831E-09
   4     0.0000      0.20000     -0.50000      0.72836E-01   0.0000      0.22716       0.0000       0.0000       0.0000       0.0000       0.0000       0.0000     -0.18143E-08
   5     0.0000       0.0000       0.0000      0.42578E-01   0.0000       0.0000     -0.42578E-01   0.0000       0.0000       0.0000       0.0000       0.0000      0.72410E-09
 
 SOLVING FOR HEAD 
MODFLOW ITER.#  NEWTON-RAPHSON ITER.#   MAXIMUM NODE HEAD CHANGE
         1                   1                  0.0000000000
         1                   2                  0.0000000000
         1                   3                  0.0000000000
     1 CALLS TO PCG ROUTINE FOR TIME STEP   8 IN STRESS PERIOD    3
     1 TOTAL ITERATIONS
MODFLOW ITER.#  NEWTON-RAPHSON ITER.#   MAXIMUM NODE HEAD CHANGE
         1                   1                  0.0000000000
         1                   2                  0.0000000000
         1                   3                  0.0000000000

 NO OUTPUT CONTROL FOR STRESS PERIOD    3   TIME STEP   8
 
 
 CFPM1 CRITERION OF CONVERGENCE:     0.1000000E-05
 CFPM1 MAXIMUM NUMBER OF ITERATIONS:   100
 
 
 CFPM1 RESULTS +++++++++++++++++++++++++++++++++++++++++++++++++++++++
 
 STRESS PERIOD/TIME STEP           3           8
 
NUMBER OF NEWTON RHAPSON ITERATIONS:     3
 
 ------- RESULTS OF FLOW CALCULATION -------
 
NODE# NODE HEAD[M] MATRIX HEAD [M] EXCHANGE [M^3/D]    CADSFLOW            PFPSFLOW         DIRECT RECHARGE        QWELL         FHLQ            CAUCHY         CAUCHY LQ               QLH              QFIX
    1  19.99979      20.00017       -0.3016622E-01       0.000000           0.000000           0.000000        0.000000         0.000000         0.000000         0.000000         0.000000         0.000000    
    2  19.99979      20.00000       -0.1685634E-01       0.000000           0.000000           0.000000        0.000000        0.5000000E-01     0.000000         0.000000         0.000000         0.000000    
    3  19.99979      20.00016       -0.8756414E-01       0.000000           0.000000           0.000000        0.000000         0.000000         0.000000         0.000000         0.000000         0.000000    
    4  19.99979      20.00025       -0.7283572E-01       0.000000           0.000000          0.2000000       -.5000000         0.000000         0.000000         0.000000         0.000000         0.000000    
    5  19.99979      20.00033       -0.4257758E-01       0.000000           0.000000           0.000000        0.000000         0.000000         0.000000         0.000000         0.000000         0.000000    
 
TUBE  B  E  FLOW          Q [M^3/D]       DIAM.[M]        LEN.[M]        RE         RESIDENCE TIME [D]
   1   1   3   LAMI.         0.03017        0.10000       10.00000        4.97752        2.60357
   2   2   3   TURB.         0.06686        0.10000       10.00000       11.03150        1.17476
   3   3   4   TURB.         0.18459        0.10000       10.00000       30.45737        0.42549
   4   4   5   LAMI.        -0.04258        0.10000       10.00000        7.02543        1.84463
 

    BUDGET OF THE PIPE SYSTEM OF TIMESTEP    8 IN STRESS PERIOD    3
------------------------------------------------------------------------

  TOTAL SIMULATION TIME   280.000000000000      S
 
       CUMULATIVE VALUES (L**3)           RATES THIS TIME STEP (L**3/T)

            IN:                               IN:
     CONSTANT HEAD =   1.5311557          CONSTANT HEAD =   0.0000000    
      FHLQ BC (LQ) =   4.0000000           FHLQ BC (LQ) =  0.50000000E-01
   MATRIX EXCHANGE =   44.606835        MATRIX EXCHANGE =  0.25000000    
     PIPE RECHARGE =   56.000000          PIPE RECHARGE =  0.20000000    
           WELL BC =   0.0000000                WELL BC =   0.0000000    
       PFP STORAGE =   0.0000000            PFP STORAGE =   0.0000000    

     CUMULATIVE IN =   106.13799               TOTAL IN =  0.50000000    

           OUT:                               OUT:
     CONSTANT HEAD =   6.1379912          CONSTANT HEAD =   0.0000000    
      FHLQ BC (LQ) =   0.0000000           FHLQ BC (LQ) =   0.0000000    
   MATRIX EXCHANGE =   0.0000000        MATRIX EXCHANGE =   0.0000000    
     PIPE RECHARGE =   0.0000000          PIPE RECHARGE =   0.0000000    
           WELL BC =   100.00000                WELL BC =  0.50000000    
       PFP STORAGE =   0.0000000            PFP STORAGE =   0.0000000    

    CUMULATIVE OUT =   106.13799              TOTAL OUT =  0.50000000    

          IN - OUT =  0.23801284E-07           IN - OUT = -0.43304249E-12
     PERCENT ERROR =  0.00                PERCENT ERROR =  0.00


 
 ------------------------NODE WATER BUDGET-----------------------
  STRESS PERIOD           3  TIME STEP           8
 TOTAL SIMULATION TIME   280.000000000000     
 
 FLOW TO THE NODE IN M^3/D
 
 NODE   FIXED HEAD     RECHARGE        QWELL  MATRIX EXCH      STORAGE      TUBE_IN     TUBE_OUT         CADS     FHLQ(LQ)       CAUCHY   CAUCHY(LQ)          QLH     IN - OUT
   1     0.0000       0.0000       0.0000      0.30166E-01   0.0000       0.0000     -0.30166E-01   0.0000       0.0000       0.0000       0.0000       0.0000      0.34090E-09
   2     0.0000       0.0000       0.0000      0.16856E-01   0.0000       0.0000     -0.66856E-01   0.0000      0.50000E-01   0.0000       0.0000       0.0000      0.37005E-08
   3     0.0000       0.0000       0.0000      0.87564E-01   0.0000      0.97023E-01 -0.18459       0.0000       0.0000       0.0000       0.0000       0.0000     -0.42574E-08
   4     0.0000      0.20000     -0.50000      0.72836E-01   0.0000      0.22716       0.0000       0.0000       0.0000       0.0000       0.0000       0.0000      0.66921E-10
   5     0.0000       0.0000       0.0000      0.42578E-01   0.0000       0.0000     -0.42578E-01   0.0000       0.0000       0.0000       0.0000       0.0000      0.14872E-09
 
 SOLVING FOR HEAD 
MODFLOW ITER.#  NEWTON-RAPHSON ITER.#   MAXIMUM NODE HEAD CHANGE
         1                   1                  0.0000000000
         1                   2                  0.0000000000
         1                   3                  0.0000000000
     1 CALLS TO PCG ROUTINE FOR TIME STEP   9 IN STRESS PERIOD    3
     1 TOTAL ITERATIONS
MODFLOW ITER.#  NEWTON-RAPHSON ITER.#   MAXIMUM NODE HEAD CHANGE
         1                   1                  0.0000000000
         1                   2                  0.0000000000
         1                   3                  0.0000000000

 NO OUTPUT CONTROL FOR STRESS PERIOD    3   TIME STEP   9
 
 
 CFPM1 CRITERION OF CONVERGENCE:     0.1000000E-05
 CFPM1 MAXIMUM NUMBER OF ITERATIONS:   100
 
 
 CFPM1 RESULTS +++++++++++++++++++++++++++++++++++++++++++++++++++++++
 
 STRESS PERIOD/TIME STEP           3           9
 
NUMBER OF NEWTON RHAPSON ITERATIONS:     3
 
 ------- RESULTS OF FLOW CALCULATION -------
 
NODE# NODE HEAD[M] MATRIX HEAD [M] EXCHANGE [M^3/D]    CADSFLOW            PFPSFLOW         DIRECT RECHARGE        QWELL         FHLQ            CAUCHY         CAUCHY LQ               QLH              QFIX
    1  19.99979      20.00017       -0.3016622E-01       0.000000           0.000000           0.000000        0.000000         0.000000         0.000000         0.000000         0.000000         0.000000    
    2  19.99979      20.00000       -0.1685634E-01       0.000000           0.000000           0.000000        0.000000        0.5000000E-01     0.000000         0.000000         0.000000         0.000000    
    3  19.99979      20.00016       -0.8756414E-01       0.000000           0.000000           0.000000        0.000000         0.000000         0.000000         0.000000         0.000000         0.000000    
    4  19.99979      20.00025       -0.7283572E-01       0.000000           0.000000          0.2000000       -.5000000         0.000000         0.000000         0.000000         0.000000         0.000000    
    5  19.99979      20.00033       -0.4257758E-01       0.000000           0.000000           0.000000        0.000000         0.000000         0.000000         0.000000         0.000000         0.000000    
 
TUBE  B  E  FLOW          Q [M^3/D]       DIAM.[M]        LEN.[M]        RE         RESIDENCE TIME [D]
   1   1   3   LAMI.         0.03017        0.10000       10.00000        4.97752        2.60357
   2   2   3   TURB.         0.06686        0.10000       10.00000       11.03150        1.17475
   3   3   4   TURB.         0.18459        0.10000       10.00000       30.45737        0.42549
   4   4   5   LAMI.        -0.04258        0.10000       10.00000        7.02543        1.84463
 

    BUDGET OF THE PIPE SYSTEM OF TIMESTEP    9 IN STRESS PERIOD    3
------------------------------------------------------------------------

  TOTAL SIMULATION TIME   290.000000000000      S
 
       CUMULATIVE VALUES (L**3)           RATES THIS TIME STEP (L**3/T)

            IN:                               IN:
     CONSTANT HEAD =   1.5311557          CONSTANT HEAD =   0.0000000    
      FHLQ BC (LQ) =   4.5000000           FHLQ BC (LQ) =  0.50000000E-01
   MATRIX EXCHANGE =   47.106835        MATRIX EXCHANGE =  0.25000000    
     PIPE RECHARGE =   58.000000          PIPE RECHARGE =  0.20000000    
           WELL BC =   0.0000000                WELL BC =   0.0000000    
       PFP STORAGE =   0.0000000            PFP STORAGE =   0.0000000    

     CUMULATIVE IN =   111.13799               TOTAL IN =  0.50000000    

           OUT:                               OUT:
     CONSTANT HEAD =   6.1379912          CONSTANT HEAD =   0.0000000    
      FHLQ BC (LQ) =   0.0000000           FHLQ BC (LQ) =   0.0000000    
   MATRIX EXCHANGE =   0.0000000        MATRIX EXCHANGE =   0.0000000    
     PIPE RECHARGE =   0.0000000          PIPE RECHARGE =   0.0000000    
           WELL BC =   105.00000                WELL BC =  0.50000000    
       PFP STORAGE =   0.0000000            PFP STORAGE =   0.0000000    

    CUMULATIVE OUT =   111.13799              TOTAL OUT =  0.50000000    

          IN - OUT =  0.23805327E-07           IN - OUT =  0.40401016E-12
     PERCENT ERROR =  0.00                PERCENT ERROR =  0.00


 
 ------------------------NODE WATER BUDGET-----------------------
  STRESS PERIOD           3  TIME STEP           9
 TOTAL SIMULATION TIME   290.000000000000     
 
 FLOW TO THE NODE IN M^3/D
 
 NODE   FIXED HEAD     RECHARGE        QWELL  MATRIX EXCH      STORAGE      TUBE_IN     TUBE_OUT         CADS     FHLQ(LQ)       CAUCHY   CAUCHY(LQ)          QLH     IN - OUT
   1     0.0000       0.0000       0.0000      0.30166E-01   0.0000       0.0000     -0.30166E-01   0.0000       0.0000       0.0000       0.0000       0.0000     -0.44979E-09
   2     0.0000       0.0000       0.0000      0.16856E-01   0.0000       0.0000     -0.66856E-01   0.0000      0.50000E-01   0.0000       0.0000       0.0000     -0.29687E-08
   3     0.0000       0.0000       0.0000      0.87564E-01   0.0000      0.97023E-01 -0.18459       0.0000       0.0000       0.0000       0.0000       0.0000      0.46308E-08
   4     0.0000      0.20000     -0.50000      0.72836E-01   0.0000      0.22716       0.0000       0.0000       0.0000       0.0000       0.0000       0.0000     -0.11666E-08
   5     0.0000       0.0000       0.0000      0.42578E-01   0.0000       0.0000     -0.42578E-01   0.0000       0.0000       0.0000       0.0000       0.0000     -0.45205E-10
 
 SOLVING FOR HEAD 
MODFLOW ITER.#  NEWTON-RAPHSON ITER.#   MAXIMUM NODE HEAD CHANGE
         1                   1                  0.0000000000
         1                   2                  0.0000000000
         1                   3                  0.0000000000
     1 CALLS TO PCG ROUTINE FOR TIME STEP  10 IN STRESS PERIOD    3
     1 TOTAL ITERATIONS

 MAXIMUM HEAD CHANGE FOR EACH ITERATION (1 INDICATES THE FIRST INNER ITERATION):

    HEAD CHANGE    HEAD CHANGE    HEAD CHANGE    HEAD CHANGE    HEAD CHANGE 
   LAYER,ROW,COL  LAYER,ROW,COL  LAYER,ROW,COL  LAYER,ROW,COL  LAYER,ROW,COL
 ---------------------------------------------------------------------------
  1  0.5850E-10
   (  3,  1,  4)

 MAXIMUM RESIDUAL FOR EACH ITERATION (1 INDICATES THE FIRST INNER ITERATION):

    RESIDUAL       RESIDUAL       RESIDUAL       RESIDUAL       RESIDUAL    
   LAYER,ROW,COL  LAYER,ROW,COL  LAYER,ROW,COL  LAYER,ROW,COL  LAYER,ROW,COL
 ---------------------------------------------------------------------------
  1 -0.3915E-07
   (  3,  2,  3)


MODFLOW ITER.#  NEWTON-RAPHSON ITER.#   MAXIMUM NODE HEAD CHANGE
         1                   1                  0.0000000000
         1                   2                  0.0000000000
         1                   3                  0.0000000000

 NO OUTPUT CONTROL FOR STRESS PERIOD    3   TIME STEP  10
 
 
 CFPM1 CRITERION OF CONVERGENCE:     0.1000000E-05
 CFPM1 MAXIMUM NUMBER OF ITERATIONS:   100
 
 
 CFPM1 RESULTS +++++++++++++++++++++++++++++++++++++++++++++++++++++++
 
 STRESS PERIOD/TIME STEP           3          10
 
NUMBER OF NEWTON RHAPSON ITERATIONS:     3
 
 ------- RESULTS OF FLOW CALCULATION -------
 
NODE# NODE HEAD[M] MATRIX HEAD [M] EXCHANGE [M^3/D]    CADSFLOW            PFPSFLOW         DIRECT RECHARGE        QWELL         FHLQ            CAUCHY         CAUCHY LQ               QLH              QFIX
    1  19.99979      20.00017       -0.3016622E-01       0.000000           0.000000           0.000000        0.000000         0.000000         0.000000         0.000000         0.000000         0.000000    
    2  19.99979      20.00000       -0.1685634E-01       0.000000           0.000000           0.000000        0.000000        0.5000000E-01     0.000000         0.000000         0.000000         0.000000    
    3  19.99979      20.00016       -0.8756414E-01       0.000000           0.000000           0.000000        0.000000         0.000000         0.000000         0.000000         0.000000         0.000000    
    4  19.99979      20.00025       -0.7283572E-01       0.000000           0.000000          0.2000000       -.5000000         0.000000         0.000000         0.000000         0.000000         0.000000    
    5  19.99979      20.00033       -0.4257758E-01       0.000000           0.000000           0.000000        0.000000         0.000000         0.000000         0.000000         0.000000         0.000000    
 
TUBE  B  E  FLOW          Q [M^3/D]       DIAM.[M]        LEN.[M]        RE         RESIDENCE TIME [D]
   1   1   3   LAMI.         0.03017        0.10000       10.00000        4.97752        2.60357
   2   2   3   TURB.         0.06686        0.10000       10.00000       11.03150        1.17476
   3   3   4   TURB.         0.18459        0.10000       10.00000       30.45737        0.42549
   4   4   5   LAMI.        -0.04258        0.10000       10.00000        7.02543        1.84463
 

    BUDGET OF THE PIPE SYSTEM OF TIMESTEP   10 IN STRESS PERIOD    3
------------------------------------------------------------------------

  TOTAL SIMULATION TIME   300.000000000000      S
 
       CUMULATIVE VALUES (L**3)           RATES THIS TIME STEP (L**3/T)

            IN:                               IN:
     CONSTANT HEAD =   1.5311557          CONSTANT HEAD =   0.0000000    
      FHLQ BC (LQ) =   5.0000000           FHLQ BC (LQ) =  0.50000000E-01
   MATRIX EXCHANGE =   49.606835        MATRIX EXCHANGE =  0.25000000    
     PIPE RECHARGE =   60.000000          PIPE RECHARGE =  0.20000000    
           WELL BC =   0.0000000                WELL BC =   0.0000000    
       PFP STORAGE =   0.0000000            PFP STORAGE =   0.0000000    

     CUMULATIVE IN =   116.13799               TOTAL IN =  0.50000000    

           OUT:                               OUT:
     CONSTANT HEAD =   6.1379912          CONSTANT HEAD =   0.0000000    
      FHLQ BC (LQ) =   0.0000000           FHLQ BC (LQ) =   0.0000000    
   MATRIX EXCHANGE =   0.0000000        MATRIX EXCHANGE =   0.0000000    
     PIPE RECHARGE =   0.0000000          PIPE RECHARGE =   0.0000000    
           WELL BC =   110.00000                WELL BC =  0.50000000    
       PFP STORAGE =   0.0000000            PFP STORAGE =   0.0000000    

    CUMULATIVE OUT =   116.13799              TOTAL OUT =  0.50000000    

          IN - OUT =  0.23801000E-07           IN - OUT = -0.43307025E-12
     PERCENT ERROR =  0.00                PERCENT ERROR =  0.00


 
 ------------------------NODE WATER BUDGET-----------------------
  STRESS PERIOD           3  TIME STEP          10
 TOTAL SIMULATION TIME   300.000000000000     
 
 FLOW TO THE NODE IN M^3/D
 
 NODE   FIXED HEAD     RECHARGE        QWELL  MATRIX EXCH      STORAGE      TUBE_IN     TUBE_OUT         CADS     FHLQ(LQ)       CAUCHY   CAUCHY(LQ)          QLH     IN - OUT
   1     0.0000       0.0000       0.0000      0.30166E-01   0.0000       0.0000     -0.30166E-01   0.0000       0.0000       0.0000       0.0000       0.0000      0.35038E-09
   2     0.0000       0.0000       0.0000      0.16856E-01   0.0000       0.0000     -0.66856E-01   0.0000      0.50000E-01   0.0000       0.0000       0.0000      0.10890E-08
   3     0.0000       0.0000       0.0000      0.87564E-01   0.0000      0.97023E-01 -0.18459       0.0000       0.0000       0.0000       0.0000       0.0000     -0.77854E-09
   4     0.0000      0.20000     -0.50000      0.72836E-01   0.0000      0.22716       0.0000       0.0000       0.0000       0.0000       0.0000       0.0000     -0.57267E-09
   5     0.0000       0.0000       0.0000      0.42578E-01   0.0000       0.0000     -0.42578E-01   0.0000       0.0000       0.0000       0.0000       0.0000     -0.88649E-10
1
  VOLUMETRIC BUDGET FOR ENTIRE MODEL AT END OF TIME STEP 10 IN STRESS PERIOD   3
  ------------------------------------------------------------------------------

     CUMULATIVE VOLUMES      L**3       RATES FOR THIS TIME STEP      L**3/T
     ------------------                 ------------------------

           IN:                                      IN:
           ---                                      ---
             STORAGE =       1.9330E-05               STORAGE =           0.0000
       CONSTANT HEAD =           1.6856         CONSTANT HEAD =       1.6856E-02
            RECHARGE =         660.0000              RECHARGE =           2.2000
               PIPES =           0.0000                 PIPES =           0.0000

            TOTAL IN =         661.6857              TOTAL IN =           2.2169

          OUT:                                     OUT:
          ----                                     ----
             STORAGE =       3.7785E-05               STORAGE =       1.5050E-13
       CONSTANT HEAD =         612.0777         CONSTANT HEAD =           1.9669
            RECHARGE =           0.0000              RECHARGE =           0.0000
               PIPES =          49.6068                 PIPES =           0.2500

           TOTAL OUT =         661.6846             TOTAL OUT =           2.2169

            IN - OUT =       1.0368E-03              IN - OUT =       2.7233E-07

 PERCENT DISCREPANCY =           0.00     PERCENT DISCREPANCY =           0.00






          TIME SUMMARY AT END OF TIME STEP  10 IN STRESS PERIOD    3
                    SECONDS     MINUTES      HOURS       DAYS        YEARS
                    -----------------------------------------------------------
   TIME STEP LENGTH 8.64000E+05  14400.      240.00      10.000     2.73785E-02
 STRESS PERIOD TIME 8.64000E+06 1.44000E+05  2400.0      100.00     0.27379    
         TOTAL TIME 2.59200E+07 4.32000E+05  7200.0      300.00     0.82136    
1
1
                            STRESS PERIOD NO.    4, LENGTH =   100.0000    
                            -----------------------------------------------

                              NUMBER OF TIME STEPS =    10

                               MULTIPLIER FOR DELT =     1.000

                            INITIAL TIME STEP SIZE =   10.00000    



                           RECHARGE
 READING ON UNIT   19 WITH FORMAT: (4E15.6)            
 
 CFP1RCH1RP SUBROUTINE READING FROM UNIT           53
 READING INPUT USED TO PARTICIAN RECHARGE AND WELL DATA
 0.0    0.0    0.0    1.0    0.0   
 DATA FOR WELLS:
 0.0    0.0    0.0   -.40    0.0   
 
 SOLVING FOR HEAD 
MODFLOW ITER.#  NEWTON-RAPHSON ITER.#   MAXIMUM NODE HEAD CHANGE
         1                   1                  0.0003184250
    RESET NODE    2 FROM LQ TO FH WITH HEAD   20.0000    
    CHANGED    1 CONDUIT NODES DUE TO FHLQ IN STRESS PERIOD      4
TUBE   2 SWITCH TURB -> LAM: TURBREY (   6.563    ) <= LCRITREY:   10.00     LAM_RE:  0.8702    
TUBE   3 SWITCH TURB -> LAM: TURBREY (   2.658    ) <= LCRITREY:   10.00     LAM_RE:  0.3784    
         1                   2                  0.0001036481
    CHANGED    1 CONDUIT NODES DUE TO FHLQ IN STRESS PERIOD      4
         1                   3                  0.0000000771
  LAMINAR PRECALCULATION
MODFLOW ITER.#  NEWTON-RAPHSON ITER.#   MAXIMUM NODE HEAD CHANGE
         2                   1                  0.0000000000
  LAMINAR PRECALCULATION
MODFLOW ITER.#  NEWTON-RAPHSON ITER.#   MAXIMUM NODE HEAD CHANGE
         3                   1                  0.0000000000


     3 CALLS TO PCG ROUTINE FOR TIME STEP   1 IN STRESS PERIOD    4
    13 TOTAL ITERATIONS
  LAMINAR PRECALCULATION
MODFLOW ITER.#  NEWTON-RAPHSON ITER.#   MAXIMUM NODE HEAD CHANGE
         3                   1                  0.0000000000

 NO OUTPUT CONTROL FOR STRESS PERIOD    4   TIME STEP   1
 
 
 CFPM1 CRITERION OF CONVERGENCE:     0.1000000E-05
 CFPM1 MAXIMUM NUMBER OF ITERATIONS:   100
 
 
 CFPM1 RESULTS +++++++++++++++++++++++++++++++++++++++++++++++++++++++
 
 STRESS PERIOD/TIME STEP           4           1
 
NUMBER OF NEWTON RHAPSON ITERATIONS:     1
 
 ------- RESULTS OF FLOW CALCULATION -------
 
NODE# NODE HEAD[M] MATRIX HEAD [M] EXCHANGE [M^3/D]    CADSFLOW            PFPSFLOW         DIRECT RECHARGE        QWELL         FHLQ            CAUCHY         CAUCHY LQ               QLH              QFIX
    1  20.00000      20.00027       -0.2107059E-01       0.000000           0.000000           0.000000        0.000000         0.000000         0.000000         0.000000         0.000000         0.000000    
    2  20.00    FIX  20.00000           0.0000           0.000000           0.000000           0.000000        0.000000         0.000000         0.000000         0.000000         0.000000       -0.8445195E-01
    3  20.00000      20.00026       -0.6021119E-01       0.000000           0.000000           0.000000        0.000000         0.000000         0.000000         0.000000         0.000000         0.000000    
    4  20.00000      20.00040       -0.6261166E-01       0.000000           0.000000          0.3000000       -.4000000         0.000000         0.000000         0.000000         0.000000         0.000000    
    5  20.00000      20.00052       -0.4055851E-01       0.000000           0.000000           0.000000        0.000000         0.000000         0.000000         0.000000         0.000000         0.000000    
 
TUBE  B  E  FLOW          Q [M^3/D]       DIAM.[M]        LEN.[M]        RE         RESIDENCE TIME [D]
   1   1   3   LAMI.         0.02107        0.10000       10.00000        3.47671        3.72746
   2   2   3   LAMI.        -0.08445        0.10000       10.00000       13.93483        0.92999
   3   3   4   LAMI.        -0.00317        0.10000       10.00000        0.52309       24.77465
   4   4   5   LAMI.        -0.04056        0.10000       10.00000        6.69228        1.93646
 

    BUDGET OF THE PIPE SYSTEM OF TIMESTEP    1 IN STRESS PERIOD    4
------------------------------------------------------------------------

  TOTAL SIMULATION TIME   310.000000000000      S
 
       CUMULATIVE VALUES (L**3)           RATES THIS TIME STEP (L**3/T)

            IN:                               IN:
     CONSTANT HEAD =   1.5311557          CONSTANT HEAD =   0.0000000    
      FHLQ BC (LQ) =   5.0000000           FHLQ BC (LQ) =   0.0000000    
   MATRIX EXCHANGE =   51.451355        MATRIX EXCHANGE =  0.18445195    
     PIPE RECHARGE =   63.000000          PIPE RECHARGE =  0.30000000    
           WELL BC =   0.0000000                WELL BC =   0.0000000    
       PFP STORAGE =   0.0000000            PFP STORAGE =   0.0000000    

     CUMULATIVE IN =   120.98251               TOTAL IN =  0.48445195    

           OUT:                               OUT:
     CONSTANT HEAD =   6.9825107          CONSTANT HEAD =  0.84451951E-01
      FHLQ BC (LQ) =   0.0000000           FHLQ BC (LQ) =   0.0000000    
   MATRIX EXCHANGE =   0.0000000        MATRIX EXCHANGE =   0.0000000    
     PIPE RECHARGE =   0.0000000          PIPE RECHARGE =   0.0000000    
           WELL BC =   114.00000                WELL BC =  0.40000000    
       PFP STORAGE =   0.0000000            PFP STORAGE =   0.0000000    

    CUMULATIVE OUT =   120.98251              TOTAL OUT =  0.48445195    

          IN - OUT =  0.34146431E-07           IN - OUT =  0.10345431E-08
     PERCENT ERROR =  0.00                PERCENT ERROR =  0.00


 
 ------------------------NODE WATER BUDGET-----------------------
  STRESS PERIOD           4  TIME STEP           1
 TOTAL SIMULATION TIME   310.000000000000     
 
 FLOW TO THE NODE IN M^3/D
 
 NODE   FIXED HEAD     RECHARGE        QWELL  MATRIX EXCH      STORAGE      TUBE_IN     TUBE_OUT         CADS     FHLQ(LQ)       CAUCHY   CAUCHY(LQ)          QLH     IN - OUT
   1     0.0000       0.0000       0.0000      0.21071E-01   0.0000       0.0000     -0.21071E-01   0.0000       0.0000       0.0000       0.0000       0.0000      0.47380E-09
   2   -0.84452E-01   0.0000       0.0000       0.0000       0.0000      0.84452E-01   0.0000       0.0000       0.0000       0.0000       0.0000       0.0000       0.0000    
   3     0.0000       0.0000       0.0000      0.60211E-01   0.0000      0.24241E-01 -0.84452E-01   0.0000       0.0000       0.0000       0.0000       0.0000     -0.23606E-09
   4     0.0000      0.30000     -0.40000      0.62612E-01   0.0000      0.40559E-01 -0.31702E-02   0.0000       0.0000       0.0000       0.0000       0.0000      0.11774E-08
   5     0.0000       0.0000       0.0000      0.40559E-01   0.0000       0.0000     -0.40559E-01   0.0000       0.0000       0.0000       0.0000       0.0000     -0.38056E-09
 
 SOLVING FOR HEAD 
  LAMINAR PRECALCULATION
MODFLOW ITER.#  NEWTON-RAPHSON ITER.#   MAXIMUM NODE HEAD CHANGE
         1                   1                  0.0000000000
     1 CALLS TO PCG ROUTINE FOR TIME STEP   2 IN STRESS PERIOD    4
     1 TOTAL ITERATIONS
  LAMINAR PRECALCULATION
MODFLOW ITER.#  NEWTON-RAPHSON ITER.#   MAXIMUM NODE HEAD CHANGE
         1                   1                  0.0000000000

 NO OUTPUT CONTROL FOR STRESS PERIOD    4   TIME STEP   2
 
 
 CFPM1 CRITERION OF CONVERGENCE:     0.1000000E-05
 CFPM1 MAXIMUM NUMBER OF ITERATIONS:   100
 
 
 CFPM1 RESULTS +++++++++++++++++++++++++++++++++++++++++++++++++++++++
 
 STRESS PERIOD/TIME STEP           4           2
 
NUMBER OF NEWTON RHAPSON ITERATIONS:     1
 
 ------- RESULTS OF FLOW CALCULATION -------
 
NODE# NODE HEAD[M] MATRIX HEAD [M] EXCHANGE [M^3/D]    CADSFLOW            PFPSFLOW         DIRECT RECHARGE        QWELL         FHLQ            CAUCHY         CAUCHY LQ               QLH              QFIX
    1  20.00000      20.00027       -0.2107062E-01       0.000000           0.000000           0.000000        0.000000         0.000000         0.000000         0.000000         0.000000         0.000000    
    2  20.00    FIX  20.00000           0.0000           0.000000           0.000000           0.000000        0.000000         0.000000         0.000000         0.000000         0.000000       -0.8445199E-01
    3  20.00000      20.00026       -0.6021121E-01       0.000000           0.000000           0.000000        0.000000         0.000000         0.000000         0.000000         0.000000         0.000000    
    4  20.00000      20.00040       -0.6261164E-01       0.000000           0.000000          0.3000000       -.4000000         0.000000         0.000000         0.000000         0.000000         0.000000    
    5  20.00000      20.00052       -0.4055852E-01       0.000000           0.000000           0.000000        0.000000         0.000000         0.000000         0.000000         0.000000         0.000000    
 
TUBE  B  E  FLOW          Q [M^3/D]       DIAM.[M]        LEN.[M]        RE         RESIDENCE TIME [D]
   1   1   3   LAMI.         0.02107        0.10000       10.00000        3.47672        3.72746
   2   2   3   LAMI.        -0.08445        0.10000       10.00000       13.93484        0.92999
   3   3   4   LAMI.        -0.00317        0.10000       10.00000        0.52309       24.77474
   4   4   5   LAMI.        -0.04056        0.10000       10.00000        6.69228        1.93646
 

    BUDGET OF THE PIPE SYSTEM OF TIMESTEP    2 IN STRESS PERIOD    4
------------------------------------------------------------------------

  TOTAL SIMULATION TIME   320.000000000000      S
 
       CUMULATIVE VALUES (L**3)           RATES THIS TIME STEP (L**3/T)

            IN:                               IN:
     CONSTANT HEAD =   1.5311557          CONSTANT HEAD =   0.0000000    
      FHLQ BC (LQ) =   5.0000000           FHLQ BC (LQ) =   0.0000000    
   MATRIX EXCHANGE =   53.295875        MATRIX EXCHANGE =  0.18445199    
     PIPE RECHARGE =   66.000000          PIPE RECHARGE =  0.30000000    
           WELL BC =   0.0000000                WELL BC =   0.0000000    
       PFP STORAGE =   0.0000000            PFP STORAGE =   0.0000000    

     CUMULATIVE IN =   125.82703               TOTAL IN =  0.48445199    

           OUT:                               OUT:
     CONSTANT HEAD =   7.8270306          CONSTANT HEAD =  0.84451990E-01
      FHLQ BC (LQ) =   0.0000000           FHLQ BC (LQ) =   0.0000000    
   MATRIX EXCHANGE =   0.0000000        MATRIX EXCHANGE =   0.0000000    
     PIPE RECHARGE =   0.0000000          PIPE RECHARGE =   0.0000000    
           WELL BC =   118.00000                WELL BC =  0.40000000    
       PFP STORAGE =   0.0000000            PFP STORAGE =   0.0000000    

    CUMULATIVE OUT =   125.82703              TOTAL OUT =  0.48445199    

          IN - OUT =  0.39955729E-07           IN - OUT =  0.58092881E-09
     PERCENT ERROR =  0.00                PERCENT ERROR =  0.00


 
 ------------------------NODE WATER BUDGET-----------------------
  STRESS PERIOD           4  TIME STEP           2
 TOTAL SIMULATION TIME   320.000000000000     
 
 FLOW TO THE NODE IN M^3/D
 
 NODE   FIXED HEAD     RECHARGE        QWELL  MATRIX EXCH      STORAGE      TUBE_IN     TUBE_OUT         CADS     FHLQ(LQ)       CAUCHY   CAUCHY(LQ)          QLH     IN - OUT
   1     0.0000       0.0000       0.0000      0.21071E-01   0.0000       0.0000     -0.21071E-01   0.0000       0.0000       0.0000       0.0000       0.0000      0.34222E-09
   2   -0.84452E-01   0.0000       0.0000       0.0000       0.0000      0.84452E-01   0.0000       0.0000       0.0000       0.0000       0.0000       0.0000       0.0000    
   3     0.0000       0.0000       0.0000      0.60211E-01   0.0000      0.24241E-01 -0.84452E-01   0.0000       0.0000       0.0000       0.0000       0.0000      0.32920E-09
   4     0.0000      0.30000     -0.40000      0.62612E-01   0.0000      0.40559E-01 -0.31702E-02   0.0000       0.0000       0.0000       0.0000       0.0000     -0.61362E-09
   5     0.0000       0.0000       0.0000      0.40559E-01   0.0000       0.0000     -0.40559E-01   0.0000       0.0000       0.0000       0.0000       0.0000      0.52312E-09
 
 SOLVING FOR HEAD 
  LAMINAR PRECALCULATION
MODFLOW ITER.#  NEWTON-RAPHSON ITER.#   MAXIMUM NODE HEAD CHANGE
         1                   1                  0.0000000000
     1 CALLS TO PCG ROUTINE FOR TIME STEP   3 IN STRESS PERIOD    4
     1 TOTAL ITERATIONS
  LAMINAR PRECALCULATION
MODFLOW ITER.#  NEWTON-RAPHSON ITER.#   MAXIMUM NODE HEAD CHANGE
         1                   1                  0.0000000000

 NO OUTPUT CONTROL FOR STRESS PERIOD    4   TIME STEP   3
 
 
 CFPM1 CRITERION OF CONVERGENCE:     0.1000000E-05
 CFPM1 MAXIMUM NUMBER OF ITERATIONS:   100
 
 
 CFPM1 RESULTS +++++++++++++++++++++++++++++++++++++++++++++++++++++++
 
 STRESS PERIOD/TIME STEP           4           3
 
NUMBER OF NEWTON RHAPSON ITERATIONS:     1
 
 ------- RESULTS OF FLOW CALCULATION -------
 
NODE# NODE HEAD[M] MATRIX HEAD [M] EXCHANGE [M^3/D]    CADSFLOW            PFPSFLOW         DIRECT RECHARGE        QWELL         FHLQ            CAUCHY         CAUCHY LQ               QLH              QFIX
    1  20.00000      20.00027       -0.2107064E-01       0.000000           0.000000           0.000000        0.000000         0.000000         0.000000         0.000000         0.000000         0.000000    
    2  20.00    FIX  20.00000           0.0000           0.000000           0.000000           0.000000        0.000000         0.000000         0.000000         0.000000         0.000000       -0.8445216E-01
    3  20.00000      20.00026       -0.6021126E-01       0.000000           0.000000           0.000000        0.000000         0.000000         0.000000         0.000000         0.000000         0.000000    
    4  20.00000      20.00040       -0.6261171E-01       0.000000           0.000000          0.3000000       -.4000000         0.000000         0.000000         0.000000         0.000000         0.000000    
    5  20.00000      20.00052       -0.4055854E-01       0.000000           0.000000           0.000000        0.000000         0.000000         0.000000         0.000000         0.000000         0.000000    
 
TUBE  B  E  FLOW          Q [M^3/D]       DIAM.[M]        LEN.[M]        RE         RESIDENCE TIME [D]
   1   1   3   LAMI.         0.02107        0.10000       10.00000        3.47672        3.72745
   2   2   3   LAMI.        -0.08445        0.10000       10.00000       13.93487        0.92999
   3   3   4   LAMI.        -0.00317        0.10000       10.00000        0.52310       24.77400
   4   4   5   LAMI.        -0.04056        0.10000       10.00000        6.69228        1.93646
 

    BUDGET OF THE PIPE SYSTEM OF TIMESTEP    3 IN STRESS PERIOD    4
------------------------------------------------------------------------

  TOTAL SIMULATION TIME   330.000000000000      S
 
       CUMULATIVE VALUES (L**3)           RATES THIS TIME STEP (L**3/T)

            IN:                               IN:
     CONSTANT HEAD =   1.5311557          CONSTANT HEAD =   0.0000000    
      FHLQ BC (LQ) =   5.0000000           FHLQ BC (LQ) =   0.0000000    
   MATRIX EXCHANGE =   55.140396        MATRIX EXCHANGE =  0.18445216    
     PIPE RECHARGE =   69.000000          PIPE RECHARGE =  0.30000000    
           WELL BC =   0.0000000                WELL BC =   0.0000000    
       PFP STORAGE =   0.0000000            PFP STORAGE =   0.0000000    

     CUMULATIVE IN =   130.67155               TOTAL IN =  0.48445216    

           OUT:                               OUT:
     CONSTANT HEAD =   8.6715521          CONSTANT HEAD =  0.84452157E-01
      FHLQ BC (LQ) =   0.0000000           FHLQ BC (LQ) =   0.0000000    
   MATRIX EXCHANGE =   0.0000000        MATRIX EXCHANGE =   0.0000000    
     PIPE RECHARGE =   0.0000000          PIPE RECHARGE =   0.0000000    
           WELL BC =   122.00000                WELL BC =  0.40000000    
       PFP STORAGE =   0.0000000            PFP STORAGE =   0.0000000    

    CUMULATIVE OUT =   130.67155              TOTAL OUT =  0.48445216    

          IN - OUT =  0.38715385E-07           IN - OUT = -0.12403373E-09
     PERCENT ERROR =  0.00                PERCENT ERROR =  0.00


 
 ------------------------NODE WATER BUDGET-----------------------
  STRESS PERIOD           4  TIME STEP           3
 TOTAL SIMULATION TIME   330.000000000000     
 
 FLOW TO THE NODE IN M^3/D
 
 NODE   FIXED HEAD     RECHARGE        QWELL  MATRIX EXCH      STORAGE      TUBE_IN     TUBE_OUT         CADS     FHLQ(LQ)       CAUCHY   CAUCHY(LQ)          QLH     IN - OUT
   1     0.0000       0.0000       0.0000      0.21071E-01   0.0000       0.0000     -0.21071E-01   0.0000       0.0000       0.0000       0.0000       0.0000     -0.33857E-09
   2   -0.84452E-01   0.0000       0.0000       0.0000       0.0000      0.84452E-01   0.0000       0.0000       0.0000       0.0000       0.0000       0.0000       0.0000    
   3     0.0000       0.0000       0.0000      0.60211E-01   0.0000      0.24241E-01 -0.84452E-01   0.0000       0.0000       0.0000       0.0000       0.0000     -0.54258E-09
   4     0.0000      0.30000     -0.40000      0.62612E-01   0.0000      0.40559E-01 -0.31703E-02   0.0000       0.0000       0.0000       0.0000       0.0000      0.64915E-09
   5     0.0000       0.0000       0.0000      0.40559E-01   0.0000       0.0000     -0.40559E-01   0.0000       0.0000       0.0000       0.0000       0.0000      0.10796E-09
 
 SOLVING FOR HEAD 
  LAMINAR PRECALCULATION
MODFLOW ITER.#  NEWTON-RAPHSON ITER.#   MAXIMUM NODE HEAD CHANGE
         1                   1                  0.0000000000
     1 CALLS TO PCG ROUTINE FOR TIME STEP   4 IN STRESS PERIOD    4
     1 TOTAL ITERATIONS
  LAMINAR PRECALCULATION
MODFLOW ITER.#  NEWTON-RAPHSON ITER.#   MAXIMUM NODE HEAD CHANGE
         1                   1                  0.0000000000

 NO OUTPUT CONTROL FOR STRESS PERIOD    4   TIME STEP   4
 
 
 CFPM1 CRITERION OF CONVERGENCE:     0.1000000E-05
 CFPM1 MAXIMUM NUMBER OF ITERATIONS:   100
 
 
 CFPM1 RESULTS +++++++++++++++++++++++++++++++++++++++++++++++++++++++
 
 STRESS PERIOD/TIME STEP           4           4
 
NUMBER OF NEWTON RHAPSON ITERATIONS:     1
 
 ------- RESULTS OF FLOW CALCULATION -------
 
NODE# NODE HEAD[M] MATRIX HEAD [M] EXCHANGE [M^3/D]    CADSFLOW            PFPSFLOW         DIRECT RECHARGE        QWELL         FHLQ            CAUCHY         CAUCHY LQ               QLH              QFIX
    1  20.00000      20.00027       -0.2107065E-01       0.000000           0.000000           0.000000        0.000000         0.000000         0.000000         0.000000         0.000000         0.000000    
    2  20.00    FIX  20.00000           0.0000           0.000000           0.000000           0.000000        0.000000         0.000000         0.000000         0.000000         0.000000       -0.8445223E-01
    3  20.00000      20.00026       -0.6021129E-01       0.000000           0.000000           0.000000        0.000000         0.000000         0.000000         0.000000         0.000000         0.000000    
    4  20.00000      20.00040       -0.6261172E-01       0.000000           0.000000          0.3000000       -.4000000         0.000000         0.000000         0.000000         0.000000         0.000000    
    5  20.00000      20.00052       -0.4055856E-01       0.000000           0.000000           0.000000        0.000000         0.000000         0.000000         0.000000         0.000000         0.000000    
 
TUBE  B  E  FLOW          Q [M^3/D]       DIAM.[M]        LEN.[M]        RE         RESIDENCE TIME [D]
   1   1   3   LAMI.         0.02107        0.10000       10.00000        3.47672        3.72745
   2   2   3   LAMI.        -0.08445        0.10000       10.00000       13.93488        0.92999
   3   3   4   LAMI.        -0.00317        0.10000       10.00000        0.52311       24.77376
   4   4   5   LAMI.        -0.04056        0.10000       10.00000        6.69229        1.93645
 

    BUDGET OF THE PIPE SYSTEM OF TIMESTEP    4 IN STRESS PERIOD    4
------------------------------------------------------------------------

  TOTAL SIMULATION TIME   340.000000000000      S
 
       CUMULATIVE VALUES (L**3)           RATES THIS TIME STEP (L**3/T)

            IN:                               IN:
     CONSTANT HEAD =   1.5311557          CONSTANT HEAD =   0.0000000    
      FHLQ BC (LQ) =   5.0000000           FHLQ BC (LQ) =   0.0000000    
   MATRIX EXCHANGE =   56.984919        MATRIX EXCHANGE =  0.18445223    
     PIPE RECHARGE =   72.000000          PIPE RECHARGE =  0.30000000    
           WELL BC =   0.0000000                WELL BC =   0.0000000    
       PFP STORAGE =   0.0000000            PFP STORAGE =   0.0000000    

     CUMULATIVE IN =   135.51607               TOTAL IN =  0.48445223    

           OUT:                               OUT:
     CONSTANT HEAD =   9.5160744          CONSTANT HEAD =  0.84452226E-01
      FHLQ BC (LQ) =   0.0000000           FHLQ BC (LQ) =   0.0000000    
   MATRIX EXCHANGE =   0.0000000        MATRIX EXCHANGE =   0.0000000    
     PIPE RECHARGE =   0.0000000          PIPE RECHARGE =   0.0000000    
           WELL BC =   126.00000                WELL BC =  0.40000000    
       PFP STORAGE =   0.0000000            PFP STORAGE =   0.0000000    

    CUMULATIVE OUT =   135.51607              TOTAL OUT =  0.48445223    

          IN - OUT =  0.48120796E-07           IN - OUT =  0.94054128E-09
     PERCENT ERROR =  0.00                PERCENT ERROR =  0.00


 
 ------------------------NODE WATER BUDGET-----------------------
  STRESS PERIOD           4  TIME STEP           4
 TOTAL SIMULATION TIME   340.000000000000     
 
 FLOW TO THE NODE IN M^3/D
 
 NODE   FIXED HEAD     RECHARGE        QWELL  MATRIX EXCH      STORAGE      TUBE_IN     TUBE_OUT         CADS     FHLQ(LQ)       CAUCHY   CAUCHY(LQ)          QLH     IN - OUT
   1     0.0000       0.0000       0.0000      0.21071E-01   0.0000       0.0000     -0.21071E-01   0.0000       0.0000       0.0000       0.0000       0.0000     -0.68095E-09
   2   -0.84452E-01   0.0000       0.0000       0.0000       0.0000      0.84452E-01   0.0000       0.0000       0.0000       0.0000       0.0000       0.0000       0.0000    
   3     0.0000       0.0000       0.0000      0.60211E-01   0.0000      0.24241E-01 -0.84452E-01   0.0000       0.0000       0.0000       0.0000       0.0000      0.15630E-08
   4     0.0000      0.30000     -0.40000      0.62612E-01   0.0000      0.40559E-01 -0.31703E-02   0.0000       0.0000       0.0000       0.0000       0.0000     -0.46058E-09
   5     0.0000       0.0000       0.0000      0.40559E-01   0.0000       0.0000     -0.40559E-01   0.0000       0.0000       0.0000       0.0000       0.0000      0.51908E-09
 
 SOLVING FOR HEAD 
  LAMINAR PRECALCULATION
MODFLOW ITER.#  NEWTON-RAPHSON ITER.#   MAXIMUM NODE HEAD CHANGE
         1                   1                  0.0000000000
     1 CALLS TO PCG ROUTINE FOR TIME STEP   5 IN STRESS PERIOD    4
     1 TOTAL ITERATIONS

 MAXIMUM HEAD CHANGE FOR EACH ITERATION (1 INDICATES THE FIRST INNER ITERATION):

    HEAD CHANGE    HEAD CHANGE    HEAD CHANGE    HEAD CHANGE    HEAD CHANGE 
   LAYER,ROW,COL  LAYER,ROW,COL  LAYER,ROW,COL  LAYER,ROW,COL  LAYER,ROW,COL
 ---------------------------------------------------------------------------
  1  0.2145E-09
   (  3,  2,  3)

 MAXIMUM RESIDUAL FOR EACH ITERATION (1 INDICATES THE FIRST INNER ITERATION):

    RESIDUAL       RESIDUAL       RESIDUAL       RESIDUAL       RESIDUAL    
   LAYER,ROW,COL  LAYER,ROW,COL  LAYER,ROW,COL  LAYER,ROW,COL  LAYER,ROW,COL
 ---------------------------------------------------------------------------
  1 -0.3030E-06
   (  2,  3,  2)


  LAMINAR PRECALCULATION
MODFLOW ITER.#  NEWTON-RAPHSON ITER.#   MAXIMUM NODE HEAD CHANGE
         1                   1                  0.0000000000

 NO OUTPUT CONTROL FOR STRESS PERIOD    4   TIME STEP   5
 
 
 CFPM1 CRITERION OF CONVERGENCE:     0.1000000E-05
 CFPM1 MAXIMUM NUMBER OF ITERATIONS:   100
 
 
 CFPM1 RESULTS +++++++++++++++++++++++++++++++++++++++++++++++++++++++
 
 STRESS PERIOD/TIME STEP           4           5
 
NUMBER OF NEWTON RHAPSON ITERATIONS:     1
 
 ------- RESULTS OF FLOW CALCULATION -------
 
NODE# NODE HEAD[M] MATRIX HEAD [M] EXCHANGE [M^3/D]    CADSFLOW            PFPSFLOW         DIRECT RECHARGE        QWELL         FHLQ            CAUCHY         CAUCHY LQ               QLH              QFIX
    1  20.00000      20.00027       -0.2107066E-01       0.000000           0.000000           0.000000        0.000000         0.000000         0.000000         0.000000         0.000000         0.000000    
    2  20.00    FIX  20.00000           0.0000           0.000000           0.000000           0.000000        0.000000         0.000000         0.000000         0.000000         0.000000       -0.8445230E-01
    3  20.00000      20.00026       -0.6021132E-01       0.000000           0.000000           0.000000        0.000000         0.000000         0.000000         0.000000         0.000000         0.000000    
    4  20.00000      20.00040       -0.6261175E-01       0.000000           0.000000          0.3000000       -.4000000         0.000000         0.000000         0.000000         0.000000         0.000000    
    5  20.00000      20.00052       -0.4055857E-01       0.000000           0.000000           0.000000        0.000000         0.000000         0.000000         0.000000         0.000000         0.000000    
 
TUBE  B  E  FLOW          Q [M^3/D]       DIAM.[M]        LEN.[M]        RE         RESIDENCE TIME [D]
   1   1   3   LAMI.         0.02107        0.10000       10.00000        3.47672        3.72745
   2   2   3   LAMI.        -0.08445        0.10000       10.00000       13.93489        0.92999
   3   3   4   LAMI.        -0.00317        0.10000       10.00000        0.52311       24.77347
   4   4   5   LAMI.        -0.04056        0.10000       10.00000        6.69229        1.93645
 

    BUDGET OF THE PIPE SYSTEM OF TIMESTEP    5 IN STRESS PERIOD    4
------------------------------------------------------------------------

  TOTAL SIMULATION TIME   350.000000000000      S
 
       CUMULATIVE VALUES (L**3)           RATES THIS TIME STEP (L**3/T)

            IN:                               IN:
     CONSTANT HEAD =   1.5311557          CONSTANT HEAD =   0.0000000    
      FHLQ BC (LQ) =   5.0000000           FHLQ BC (LQ) =   0.0000000    
   MATRIX EXCHANGE =   58.829442        MATRIX EXCHANGE =  0.18445230    
     PIPE RECHARGE =   75.000000          PIPE RECHARGE =  0.30000000    
           WELL BC =   0.0000000                WELL BC =   0.0000000    
       PFP STORAGE =   0.0000000            PFP STORAGE =   0.0000000    

     CUMULATIVE IN =   140.36060               TOTAL IN =  0.48445230    

           OUT:                               OUT:
     CONSTANT HEAD =   10.360597          CONSTANT HEAD =  0.84452298E-01
      FHLQ BC (LQ) =   0.0000000           FHLQ BC (LQ) =   0.0000000    
   MATRIX EXCHANGE =   0.0000000        MATRIX EXCHANGE =   0.0000000    
     PIPE RECHARGE =   0.0000000          PIPE RECHARGE =   0.0000000    
           WELL BC =   130.00000                WELL BC =  0.40000000    
       PFP STORAGE =   0.0000000            PFP STORAGE =   0.0000000    

    CUMULATIVE OUT =   140.36060              TOTAL OUT =  0.48445230    

          IN - OUT =  0.54954931E-07           IN - OUT =  0.68341455E-09
     PERCENT ERROR =  0.00                PERCENT ERROR =  0.00


 
 ------------------------NODE WATER BUDGET-----------------------
  STRESS PERIOD           4  TIME STEP           5
 TOTAL SIMULATION TIME   350.000000000000     
 
 FLOW TO THE NODE IN M^3/D
 
 NODE   FIXED HEAD     RECHARGE        QWELL  MATRIX EXCH      STORAGE      TUBE_IN     TUBE_OUT         CADS     FHLQ(LQ)       CAUCHY   CAUCHY(LQ)          QLH     IN - OUT
   1     0.0000       0.0000       0.0000      0.21071E-01   0.0000       0.0000     -0.21071E-01   0.0000       0.0000       0.0000       0.0000       0.0000      0.71142E-09
   2   -0.84452E-01   0.0000       0.0000       0.0000       0.0000      0.84452E-01   0.0000       0.0000       0.0000       0.0000       0.0000       0.0000       0.0000    
   3     0.0000       0.0000       0.0000      0.60211E-01   0.0000      0.24241E-01 -0.84452E-01   0.0000       0.0000       0.0000       0.0000       0.0000     -0.71759E-09
   4     0.0000      0.30000     -0.40000      0.62612E-01   0.0000      0.40559E-01 -0.31703E-02   0.0000       0.0000       0.0000       0.0000       0.0000      0.97671E-09
   5     0.0000       0.0000       0.0000      0.40559E-01   0.0000       0.0000     -0.40559E-01   0.0000       0.0000       0.0000       0.0000       0.0000     -0.28713E-09
 
 SOLVING FOR HEAD 
  LAMINAR PRECALCULATION
MODFLOW ITER.#  NEWTON-RAPHSON ITER.#   MAXIMUM NODE HEAD CHANGE
         1                   1                  0.0000000000
     1 CALLS TO PCG ROUTINE FOR TIME STEP   6 IN STRESS PERIOD    4
     1 TOTAL ITERATIONS
  LAMINAR PRECALCULATION
MODFLOW ITER.#  NEWTON-RAPHSON ITER.#   MAXIMUM NODE HEAD CHANGE
         1                   1                  0.0000000000

 NO OUTPUT CONTROL FOR STRESS PERIOD    4   TIME STEP   6
 
 
 CFPM1 CRITERION OF CONVERGENCE:     0.1000000E-05
 CFPM1 MAXIMUM NUMBER OF ITERATIONS:   100
 
 
 CFPM1 RESULTS +++++++++++++++++++++++++++++++++++++++++++++++++++++++
 
 STRESS PERIOD/TIME STEP           4           6
 
NUMBER OF NEWTON RHAPSON ITERATIONS:     1
 
 ------- RESULTS OF FLOW CALCULATION -------
 
NODE# NODE HEAD[M] MATRIX HEAD [M] EXCHANGE [M^3/D]    CADSFLOW            PFPSFLOW         DIRECT RECHARGE        QWELL         FHLQ            CAUCHY         CAUCHY LQ               QLH              QFIX
    1  20.00000      20.00027       -0.2107067E-01       0.000000           0.000000           0.000000        0.000000         0.000000         0.000000         0.000000         0.000000         0.000000    
    2  20.00    FIX  20.00000           0.0000           0.000000           0.000000           0.000000        0.000000         0.000000         0.000000         0.000000         0.000000       -0.8445233E-01
    3  20.00000      20.00026       -0.6021133E-01       0.000000           0.000000           0.000000        0.000000         0.000000         0.000000         0.000000         0.000000         0.000000    
    4  20.00000      20.00040       -0.6261176E-01       0.000000           0.000000          0.3000000       -.4000000         0.000000         0.000000         0.000000         0.000000         0.000000    
    5  20.00000      20.00052       -0.4055858E-01       0.000000           0.000000           0.000000        0.000000         0.000000         0.000000         0.000000         0.000000         0.000000    
 
TUBE  B  E  FLOW          Q [M^3/D]       DIAM.[M]        LEN.[M]        RE         RESIDENCE TIME [D]
   1   1   3   LAMI.         0.02107        0.10000       10.00000        3.47672        3.72745
   2   2   3   LAMI.        -0.08445        0.10000       10.00000       13.93489        0.92999
   3   3   4   LAMI.        -0.00317        0.10000       10.00000        0.52311       24.77337
   4   4   5   LAMI.        -0.04056        0.10000       10.00000        6.69229        1.93645
 

    BUDGET OF THE PIPE SYSTEM OF TIMESTEP    6 IN STRESS PERIOD    4
------------------------------------------------------------------------

  TOTAL SIMULATION TIME   360.000000000000      S
 
       CUMULATIVE VALUES (L**3)           RATES THIS TIME STEP (L**3/T)

            IN:                               IN:
     CONSTANT HEAD =   1.5311557          CONSTANT HEAD =   0.0000000    
      FHLQ BC (LQ) =   5.0000000           FHLQ BC (LQ) =   0.0000000    
   MATRIX EXCHANGE =   60.673965        MATRIX EXCHANGE =  0.18445233    
     PIPE RECHARGE =   78.000000          PIPE RECHARGE =  0.30000000    
           WELL BC =   0.0000000                WELL BC =   0.0000000    
       PFP STORAGE =   0.0000000            PFP STORAGE =   0.0000000    

     CUMULATIVE IN =   145.20512               TOTAL IN =  0.48445233    

           OUT:                               OUT:
     CONSTANT HEAD =   11.205121          CONSTANT HEAD =  0.84452329E-01
      FHLQ BC (LQ) =   0.0000000           FHLQ BC (LQ) =   0.0000000    
   MATRIX EXCHANGE =   0.0000000        MATRIX EXCHANGE =   0.0000000    
     PIPE RECHARGE =   0.0000000          PIPE RECHARGE =   0.0000000    
           WELL BC =   134.00000                WELL BC =  0.40000000    
       PFP STORAGE =   0.0000000            PFP STORAGE =   0.0000000    

    CUMULATIVE OUT =   145.20512              TOTAL OUT =  0.48445233    

          IN - OUT =  0.57041603E-07           IN - OUT =  0.20866628E-09
     PERCENT ERROR =  0.00                PERCENT ERROR =  0.00


 
 ------------------------NODE WATER BUDGET-----------------------
  STRESS PERIOD           4  TIME STEP           6
 TOTAL SIMULATION TIME   360.000000000000     
 
 FLOW TO THE NODE IN M^3/D
 
 NODE   FIXED HEAD     RECHARGE        QWELL  MATRIX EXCH      STORAGE      TUBE_IN     TUBE_OUT         CADS     FHLQ(LQ)       CAUCHY   CAUCHY(LQ)          QLH     IN - OUT
   1     0.0000       0.0000       0.0000      0.21071E-01   0.0000       0.0000     -0.21071E-01   0.0000       0.0000       0.0000       0.0000       0.0000     -0.14106E-09
   2   -0.84452E-01   0.0000       0.0000       0.0000       0.0000      0.84452E-01   0.0000       0.0000       0.0000       0.0000       0.0000       0.0000       0.0000    
   3     0.0000       0.0000       0.0000      0.60211E-01   0.0000      0.24241E-01 -0.84452E-01   0.0000       0.0000       0.0000       0.0000       0.0000     -0.54993E-09
   4     0.0000      0.30000     -0.40000      0.62612E-01   0.0000      0.40559E-01 -0.31703E-02   0.0000       0.0000       0.0000       0.0000       0.0000      0.90671E-09
   5     0.0000       0.0000       0.0000      0.40559E-01   0.0000       0.0000     -0.40559E-01   0.0000       0.0000       0.0000       0.0000       0.0000     -0.70556E-11
 
 SOLVING FOR HEAD 
  LAMINAR PRECALCULATION
MODFLOW ITER.#  NEWTON-RAPHSON ITER.#   MAXIMUM NODE HEAD CHANGE
         1                   1                  0.0000000000
     1 CALLS TO PCG ROUTINE FOR TIME STEP   7 IN STRESS PERIOD    4
     1 TOTAL ITERATIONS
  LAMINAR PRECALCULATION
MODFLOW ITER.#  NEWTON-RAPHSON ITER.#   MAXIMUM NODE HEAD CHANGE
         1                   1                  0.0000000000

 NO OUTPUT CONTROL FOR STRESS PERIOD    4   TIME STEP   7
 
 
 CFPM1 CRITERION OF CONVERGENCE:     0.1000000E-05
 CFPM1 MAXIMUM NUMBER OF ITERATIONS:   100
 
 
 CFPM1 RESULTS +++++++++++++++++++++++++++++++++++++++++++++++++++++++
 
 STRESS PERIOD/TIME STEP           4           7
 
NUMBER OF NEWTON RHAPSON ITERATIONS:     1
 
 ------- RESULTS OF FLOW CALCULATION -------
 
NODE# NODE HEAD[M] MATRIX HEAD [M] EXCHANGE [M^3/D]    CADSFLOW            PFPSFLOW         DIRECT RECHARGE        QWELL         FHLQ            CAUCHY         CAUCHY LQ               QLH              QFIX
    1  20.00000      20.00027       -0.2107067E-01       0.000000           0.000000           0.000000        0.000000         0.000000         0.000000         0.000000         0.000000         0.000000    
    2  20.00    FIX  20.00000           0.0000           0.000000           0.000000           0.000000        0.000000         0.000000         0.000000         0.000000         0.000000       -0.8445236E-01
    3  20.00000      20.00026       -0.6021134E-01       0.000000           0.000000           0.000000        0.000000         0.000000         0.000000         0.000000         0.000000         0.000000    
    4  20.00000      20.00040       -0.6261177E-01       0.000000           0.000000          0.3000000       -.4000000         0.000000         0.000000         0.000000         0.000000         0.000000    
    5  20.00000      20.00052       -0.4055858E-01       0.000000           0.000000           0.000000        0.000000         0.000000         0.000000         0.000000         0.000000         0.000000    
 
TUBE  B  E  FLOW          Q [M^3/D]       DIAM.[M]        LEN.[M]        RE         RESIDENCE TIME [D]
   1   1   3   LAMI.         0.02107        0.10000       10.00000        3.47673        3.72745
   2   2   3   LAMI.        -0.08445        0.10000       10.00000       13.93490        0.92999
   3   3   4   LAMI.        -0.00317        0.10000       10.00000        0.52312       24.77325
   4   4   5   LAMI.        -0.04056        0.10000       10.00000        6.69229        1.93645
 

    BUDGET OF THE PIPE SYSTEM OF TIMESTEP    7 IN STRESS PERIOD    4
------------------------------------------------------------------------

  TOTAL SIMULATION TIME   370.000000000000      S
 
       CUMULATIVE VALUES (L**3)           RATES THIS TIME STEP (L**3/T)

            IN:                               IN:
     CONSTANT HEAD =   1.5311557          CONSTANT HEAD =   0.0000000    
      FHLQ BC (LQ) =   5.0000000           FHLQ BC (LQ) =   0.0000000    
   MATRIX EXCHANGE =   62.518489        MATRIX EXCHANGE =  0.18445236    
     PIPE RECHARGE =   81.000000          PIPE RECHARGE =  0.30000000    
           WELL BC =   0.0000000                WELL BC =   0.0000000    
       PFP STORAGE =   0.0000000            PFP STORAGE =   0.0000000    

     CUMULATIVE IN =   150.04964               TOTAL IN =  0.48445236    

           OUT:                               OUT:
     CONSTANT HEAD =   12.049644          CONSTANT HEAD =  0.84452357E-01
      FHLQ BC (LQ) =   0.0000000           FHLQ BC (LQ) =   0.0000000    
   MATRIX EXCHANGE =   0.0000000        MATRIX EXCHANGE =   0.0000000    
     PIPE RECHARGE =   0.0000000          PIPE RECHARGE =   0.0000000    
           WELL BC =   138.00000                WELL BC =  0.40000000    
       PFP STORAGE =   0.0000000            PFP STORAGE =   0.0000000    

    CUMULATIVE OUT =   150.04964              TOTAL OUT =  0.48445236    

          IN - OUT =  0.66431461E-07           IN - OUT =  0.93898544E-09
     PERCENT ERROR =  0.00                PERCENT ERROR =  0.00


 
 ------------------------NODE WATER BUDGET-----------------------
  STRESS PERIOD           4  TIME STEP           7
 TOTAL SIMULATION TIME   370.000000000000     
 
 FLOW TO THE NODE IN M^3/D
 
 NODE   FIXED HEAD     RECHARGE        QWELL  MATRIX EXCH      STORAGE      TUBE_IN     TUBE_OUT         CADS     FHLQ(LQ)       CAUCHY   CAUCHY(LQ)          QLH     IN - OUT
   1     0.0000       0.0000       0.0000      0.21071E-01   0.0000       0.0000     -0.21071E-01   0.0000       0.0000       0.0000       0.0000       0.0000     -0.46431E-09
   2   -0.84452E-01   0.0000       0.0000       0.0000       0.0000      0.84452E-01   0.0000       0.0000       0.0000       0.0000       0.0000       0.0000       0.0000    
   3     0.0000       0.0000       0.0000      0.60211E-01   0.0000      0.24241E-01 -0.84452E-01   0.0000       0.0000       0.0000       0.0000       0.0000      0.44659E-09
   4     0.0000      0.30000     -0.40000      0.62612E-01   0.0000      0.40559E-01 -0.31703E-02   0.0000       0.0000       0.0000       0.0000       0.0000      0.16096E-08
   5     0.0000       0.0000       0.0000      0.40559E-01   0.0000       0.0000     -0.40559E-01   0.0000       0.0000       0.0000       0.0000       0.0000     -0.65286E-09
 
 SOLVING FOR HEAD 
  LAMINAR PRECALCULATION
MODFLOW ITER.#  NEWTON-RAPHSON ITER.#   MAXIMUM NODE HEAD CHANGE
         1                   1                  0.0000000000
     1 CALLS TO PCG ROUTINE FOR TIME STEP   8 IN STRESS PERIOD    4
     1 TOTAL ITERATIONS
  LAMINAR PRECALCULATION
MODFLOW ITER.#  NEWTON-RAPHSON ITER.#   MAXIMUM NODE HEAD CHANGE
         1                   1                  0.0000000000

 NO OUTPUT CONTROL FOR STRESS PERIOD    4   TIME STEP   8
 
 
 CFPM1 CRITERION OF CONVERGENCE:     0.1000000E-05
 CFPM1 MAXIMUM NUMBER OF ITERATIONS:   100
 
 
 CFPM1 RESULTS +++++++++++++++++++++++++++++++++++++++++++++++++++++++
 
 STRESS PERIOD/TIME STEP           4           8
 
NUMBER OF NEWTON RHAPSON ITERATIONS:     1
 
 ------- RESULTS OF FLOW CALCULATION -------
 
NODE# NODE HEAD[M] MATRIX HEAD [M] EXCHANGE [M^3/D]    CADSFLOW            PFPSFLOW         DIRECT RECHARGE        QWELL         FHLQ            CAUCHY         CAUCHY LQ               QLH              QFIX
    1  20.00000      20.00027       -0.2107067E-01       0.000000           0.000000           0.000000        0.000000         0.000000         0.000000         0.000000         0.000000         0.000000    
    2  20.00    FIX  20.00000           0.0000           0.000000           0.000000           0.000000        0.000000         0.000000         0.000000         0.000000         0.000000       -0.8445237E-01
    3  20.00000      20.00026       -0.6021134E-01       0.000000           0.000000           0.000000        0.000000         0.000000         0.000000         0.000000         0.000000         0.000000    
    4  20.00000      20.00040       -0.6261177E-01       0.000000           0.000000          0.3000000       -.4000000         0.000000         0.000000         0.000000         0.000000         0.000000    
    5  20.00000      20.00052       -0.4055858E-01       0.000000           0.000000           0.000000        0.000000         0.000000         0.000000         0.000000         0.000000         0.000000    
 
TUBE  B  E  FLOW          Q [M^3/D]       DIAM.[M]        LEN.[M]        RE         RESIDENCE TIME [D]
   1   1   3   LAMI.         0.02107        0.10000       10.00000        3.47673        3.72745
   2   2   3   LAMI.        -0.08445        0.10000       10.00000       13.93490        0.92999
   3   3   4   LAMI.        -0.00317        0.10000       10.00000        0.52312       24.77319
   4   4   5   LAMI.        -0.04056        0.10000       10.00000        6.69229        1.93645
 

    BUDGET OF THE PIPE SYSTEM OF TIMESTEP    8 IN STRESS PERIOD    4
------------------------------------------------------------------------

  TOTAL SIMULATION TIME   380.000000000000      S
 
       CUMULATIVE VALUES (L**3)           RATES THIS TIME STEP (L**3/T)

            IN:                               IN:
     CONSTANT HEAD =   1.5311557          CONSTANT HEAD =   0.0000000    
      FHLQ BC (LQ) =   5.0000000           FHLQ BC (LQ) =   0.0000000    
   MATRIX EXCHANGE =   64.363012        MATRIX EXCHANGE =  0.18445237    
     PIPE RECHARGE =   84.000000          PIPE RECHARGE =  0.30000000    
           WELL BC =   0.0000000                WELL BC =   0.0000000    
       PFP STORAGE =   0.0000000            PFP STORAGE =   0.0000000    

     CUMULATIVE IN =   154.89417               TOTAL IN =  0.48445237    

           OUT:                               OUT:
     CONSTANT HEAD =   12.894168          CONSTANT HEAD =  0.84452370E-01
      FHLQ BC (LQ) =   0.0000000           FHLQ BC (LQ) =   0.0000000    
   MATRIX EXCHANGE =   0.0000000        MATRIX EXCHANGE =   0.0000000    
     PIPE RECHARGE =   0.0000000          PIPE RECHARGE =   0.0000000    
           WELL BC =   142.00000                WELL BC =  0.40000000    
       PFP STORAGE =   0.0000000            PFP STORAGE =   0.0000000    

    CUMULATIVE OUT =   154.89417              TOTAL OUT =  0.48445237    

          IN - OUT =  0.78482046E-07           IN - OUT =  0.12050591E-08
     PERCENT ERROR =  0.00                PERCENT ERROR =  0.00


 
 ------------------------NODE WATER BUDGET-----------------------
  STRESS PERIOD           4  TIME STEP           8
 TOTAL SIMULATION TIME   380.000000000000     
 
 FLOW TO THE NODE IN M^3/D
 
 NODE   FIXED HEAD     RECHARGE        QWELL  MATRIX EXCH      STORAGE      TUBE_IN     TUBE_OUT         CADS     FHLQ(LQ)       CAUCHY   CAUCHY(LQ)          QLH     IN - OUT
   1     0.0000       0.0000       0.0000      0.21071E-01   0.0000       0.0000     -0.21071E-01   0.0000       0.0000       0.0000       0.0000       0.0000      0.33017E-09
   2   -0.84452E-01   0.0000       0.0000       0.0000       0.0000      0.84452E-01   0.0000       0.0000       0.0000       0.0000       0.0000       0.0000       0.0000    
   3     0.0000       0.0000       0.0000      0.60211E-01   0.0000      0.24241E-01 -0.84452E-01   0.0000       0.0000       0.0000       0.0000       0.0000      0.18184E-08
   4     0.0000      0.30000     -0.40000      0.62612E-01   0.0000      0.40559E-01 -0.31704E-02   0.0000       0.0000       0.0000       0.0000       0.0000     -0.17876E-08
   5     0.0000       0.0000       0.0000      0.40559E-01   0.0000       0.0000     -0.40559E-01   0.0000       0.0000       0.0000       0.0000       0.0000      0.84402E-09
 
 SOLVING FOR HEAD 
  LAMINAR PRECALCULATION
MODFLOW ITER.#  NEWTON-RAPHSON ITER.#   MAXIMUM NODE HEAD CHANGE
         1                   1                  0.0000000000
     1 CALLS TO PCG ROUTINE FOR TIME STEP   9 IN STRESS PERIOD    4
     1 TOTAL ITERATIONS
  LAMINAR PRECALCULATION
MODFLOW ITER.#  NEWTON-RAPHSON ITER.#   MAXIMUM NODE HEAD CHANGE
         1                   1                  0.0000000000

 NO OUTPUT CONTROL FOR STRESS PERIOD    4   TIME STEP   9
 
 
 CFPM1 CRITERION OF CONVERGENCE:     0.1000000E-05
 CFPM1 MAXIMUM NUMBER OF ITERATIONS:   100
 
 
 CFPM1 RESULTS +++++++++++++++++++++++++++++++++++++++++++++++++++++++
 
 STRESS PERIOD/TIME STEP           4           9
 
NUMBER OF NEWTON RHAPSON ITERATIONS:     1
 
 ------- RESULTS OF FLOW CALCULATION -------
 
NODE# NODE HEAD[M] MATRIX HEAD [M] EXCHANGE [M^3/D]    CADSFLOW            PFPSFLOW         DIRECT RECHARGE        QWELL         FHLQ            CAUCHY         CAUCHY LQ               QLH              QFIX
    1  20.00000      20.00027       -0.2107067E-01       0.000000           0.000000           0.000000        0.000000         0.000000         0.000000         0.000000         0.000000         0.000000    
    2  20.00    FIX  20.00000           0.0000           0.000000           0.000000           0.000000        0.000000         0.000000         0.000000         0.000000         0.000000       -0.8445238E-01
    3  20.00000      20.00026       -0.6021135E-01       0.000000           0.000000           0.000000        0.000000         0.000000         0.000000         0.000000         0.000000         0.000000    
    4  20.00000      20.00040       -0.6261178E-01       0.000000           0.000000          0.3000000       -.4000000         0.000000         0.000000         0.000000         0.000000         0.000000    
    5  20.00000      20.00052       -0.4055858E-01       0.000000           0.000000           0.000000        0.000000         0.000000         0.000000         0.000000         0.000000         0.000000    
 
TUBE  B  E  FLOW          Q [M^3/D]       DIAM.[M]        LEN.[M]        RE         RESIDENCE TIME [D]
   1   1   3   LAMI.         0.02107        0.10000       10.00000        3.47673        3.72745
   2   2   3   LAMI.        -0.08445        0.10000       10.00000       13.93490        0.92999
   3   3   4   LAMI.        -0.00317        0.10000       10.00000        0.52312       24.77316
   4   4   5   LAMI.        -0.04056        0.10000       10.00000        6.69229        1.93645
 

    BUDGET OF THE PIPE SYSTEM OF TIMESTEP    9 IN STRESS PERIOD    4
------------------------------------------------------------------------

  TOTAL SIMULATION TIME   390.000000000000      S
 
       CUMULATIVE VALUES (L**3)           RATES THIS TIME STEP (L**3/T)

            IN:                               IN:
     CONSTANT HEAD =   1.5311557          CONSTANT HEAD =   0.0000000    
      FHLQ BC (LQ) =   5.0000000           FHLQ BC (LQ) =   0.0000000    
   MATRIX EXCHANGE =   66.207536        MATRIX EXCHANGE =  0.18445238    
     PIPE RECHARGE =   87.000000          PIPE RECHARGE =  0.30000000    
           WELL BC =   0.0000000                WELL BC =   0.0000000    
       PFP STORAGE =   0.0000000            PFP STORAGE =   0.0000000    

     CUMULATIVE IN =   159.73869               TOTAL IN =  0.48445238    

           OUT:                               OUT:
     CONSTANT HEAD =   13.738692          CONSTANT HEAD =  0.84452381E-01
      FHLQ BC (LQ) =   0.0000000           FHLQ BC (LQ) =   0.0000000    
   MATRIX EXCHANGE =   0.0000000        MATRIX EXCHANGE =   0.0000000    
     PIPE RECHARGE =   0.0000000          PIPE RECHARGE =   0.0000000    
           WELL BC =   146.00000                WELL BC =  0.40000000    
       PFP STORAGE =   0.0000000            PFP STORAGE =   0.0000000    

    CUMULATIVE OUT =   159.73869              TOTAL OUT =  0.48445238    

          IN - OUT =  0.89858133E-07           IN - OUT =  0.11376075E-08
     PERCENT ERROR =  0.00                PERCENT ERROR =  0.00


 
 ------------------------NODE WATER BUDGET-----------------------
  STRESS PERIOD           4  TIME STEP           9
 TOTAL SIMULATION TIME   390.000000000000     
 
 FLOW TO THE NODE IN M^3/D
 
 NODE   FIXED HEAD     RECHARGE        QWELL  MATRIX EXCH      STORAGE      TUBE_IN     TUBE_OUT         CADS     FHLQ(LQ)       CAUCHY   CAUCHY(LQ)          QLH     IN - OUT
   1     0.0000       0.0000       0.0000      0.21071E-01   0.0000       0.0000     -0.21071E-01   0.0000       0.0000       0.0000       0.0000       0.0000      0.18441E-09
   2   -0.84452E-01   0.0000       0.0000       0.0000       0.0000      0.84452E-01   0.0000       0.0000       0.0000       0.0000       0.0000       0.0000       0.0000    
   3     0.0000       0.0000       0.0000      0.60211E-01   0.0000      0.24241E-01 -0.84452E-01   0.0000       0.0000       0.0000       0.0000       0.0000      0.10021E-09
   4     0.0000      0.30000     -0.40000      0.62612E-01   0.0000      0.40559E-01 -0.31704E-02   0.0000       0.0000       0.0000       0.0000       0.0000      0.11229E-08
   5     0.0000       0.0000       0.0000      0.40559E-01   0.0000       0.0000     -0.40559E-01   0.0000       0.0000       0.0000       0.0000       0.0000     -0.26989E-09
 
 SOLVING FOR HEAD 
  LAMINAR PRECALCULATION
MODFLOW ITER.#  NEWTON-RAPHSON ITER.#   MAXIMUM NODE HEAD CHANGE
         1                   1                  0.0000000000
     1 CALLS TO PCG ROUTINE FOR TIME STEP  10 IN STRESS PERIOD    4
     1 TOTAL ITERATIONS

 MAXIMUM HEAD CHANGE FOR EACH ITERATION (1 INDICATES THE FIRST INNER ITERATION):

    HEAD CHANGE    HEAD CHANGE    HEAD CHANGE    HEAD CHANGE    HEAD CHANGE 
   LAYER,ROW,COL  LAYER,ROW,COL  LAYER,ROW,COL  LAYER,ROW,COL  LAYER,ROW,COL
 ---------------------------------------------------------------------------
  1  0.4759E-10
   (  3,  1,  4)

 MAXIMUM RESIDUAL FOR EACH ITERATION (1 INDICATES THE FIRST INNER ITERATION):

    RESIDUAL       RESIDUAL       RESIDUAL       RESIDUAL       RESIDUAL    
   LAYER,ROW,COL  LAYER,ROW,COL  LAYER,ROW,COL  LAYER,ROW,COL  LAYER,ROW,COL
 ---------------------------------------------------------------------------
  1 -0.2951E-07
   (  3,  2,  3)


  LAMINAR PRECALCULATION
MODFLOW ITER.#  NEWTON-RAPHSON ITER.#   MAXIMUM NODE HEAD CHANGE
         1                   1                  0.0000000000

 NO OUTPUT CONTROL FOR STRESS PERIOD    4   TIME STEP  10
 
 
 CFPM1 CRITERION OF CONVERGENCE:     0.1000000E-05
 CFPM1 MAXIMUM NUMBER OF ITERATIONS:   100
 
 
 CFPM1 RESULTS +++++++++++++++++++++++++++++++++++++++++++++++++++++++
 
 STRESS PERIOD/TIME STEP           4          10
 
NUMBER OF NEWTON RHAPSON ITERATIONS:     1
 
 ------- RESULTS OF FLOW CALCULATION -------
 
NODE# NODE HEAD[M] MATRIX HEAD [M] EXCHANGE [M^3/D]    CADSFLOW            PFPSFLOW         DIRECT RECHARGE        QWELL         FHLQ            CAUCHY         CAUCHY LQ               QLH              QFIX
    1  20.00000      20.00027       -0.2107067E-01       0.000000           0.000000           0.000000        0.000000         0.000000         0.000000         0.000000         0.000000         0.000000    
    2  20.00    FIX  20.00000           0.0000           0.000000           0.000000           0.000000        0.000000         0.000000         0.000000         0.000000         0.000000       -0.8445239E-01
    3  20.00000      20.00026       -0.6021135E-01       0.000000           0.000000           0.000000        0.000000         0.000000         0.000000         0.000000         0.000000         0.000000    
    4  20.00000      20.00040       -0.6261178E-01       0.000000           0.000000          0.3000000       -.4000000         0.000000         0.000000         0.000000         0.000000         0.000000    
    5  20.00000      20.00052       -0.4055858E-01       0.000000           0.000000           0.000000        0.000000         0.000000         0.000000         0.000000         0.000000         0.000000    
 
TUBE  B  E  FLOW          Q [M^3/D]       DIAM.[M]        LEN.[M]        RE         RESIDENCE TIME [D]
   1   1   3   LAMI.         0.02107        0.10000       10.00000        3.47673        3.72745
   2   2   3   LAMI.        -0.08445        0.10000       10.00000       13.93490        0.92999
   3   3   4   LAMI.        -0.00317        0.10000       10.00000        0.52312       24.77314
   4   4   5   LAMI.        -0.04056        0.10000       10.00000        6.69229        1.93645
 

    BUDGET OF THE PIPE SYSTEM OF TIMESTEP   10 IN STRESS PERIOD    4
------------------------------------------------------------------------

  TOTAL SIMULATION TIME   400.000000000000      S
 
       CUMULATIVE VALUES (L**3)           RATES THIS TIME STEP (L**3/T)

            IN:                               IN:
     CONSTANT HEAD =   1.5311557          CONSTANT HEAD =   0.0000000    
      FHLQ BC (LQ) =   5.0000000           FHLQ BC (LQ) =   0.0000000    
   MATRIX EXCHANGE =   68.052060        MATRIX EXCHANGE =  0.18445239    
     PIPE RECHARGE =   90.000000          PIPE RECHARGE =  0.30000000    
           WELL BC =   0.0000000                WELL BC =   0.0000000    
       PFP STORAGE =   0.0000000            PFP STORAGE =   0.0000000    

     CUMULATIVE IN =   164.58322               TOTAL IN =  0.48445239    

           OUT:                               OUT:
     CONSTANT HEAD =   14.583216          CONSTANT HEAD =  0.84452387E-01
      FHLQ BC (LQ) =   0.0000000           FHLQ BC (LQ) =   0.0000000    
   MATRIX EXCHANGE =   0.0000000        MATRIX EXCHANGE =   0.0000000    
     PIPE RECHARGE =   0.0000000          PIPE RECHARGE =   0.0000000    
           WELL BC =   150.00000                WELL BC =  0.40000000    
       PFP STORAGE =   0.0000000            PFP STORAGE =   0.0000000    

    CUMULATIVE OUT =   164.58322              TOTAL OUT =  0.48445239    

          IN - OUT =  0.94219772E-07           IN - OUT =  0.43616419E-09
     PERCENT ERROR =  0.00                PERCENT ERROR =  0.00


 
 ------------------------NODE WATER BUDGET-----------------------
  STRESS PERIOD           4  TIME STEP          10
 TOTAL SIMULATION TIME   400.000000000000     
 
 FLOW TO THE NODE IN M^3/D
 
 NODE   FIXED HEAD     RECHARGE        QWELL  MATRIX EXCH      STORAGE      TUBE_IN     TUBE_OUT         CADS     FHLQ(LQ)       CAUCHY   CAUCHY(LQ)          QLH     IN - OUT
   1     0.0000       0.0000       0.0000      0.21071E-01   0.0000       0.0000     -0.21071E-01   0.0000       0.0000       0.0000       0.0000       0.0000     -0.22689E-12
   2   -0.84452E-01   0.0000       0.0000       0.0000       0.0000      0.84452E-01   0.0000       0.0000       0.0000       0.0000       0.0000       0.0000       0.0000    
   3     0.0000       0.0000       0.0000      0.60211E-01   0.0000      0.24241E-01 -0.84452E-01   0.0000       0.0000       0.0000       0.0000       0.0000     -0.16740E-09
   4     0.0000      0.30000     -0.40000      0.62612E-01   0.0000      0.40559E-01 -0.31704E-02   0.0000       0.0000       0.0000       0.0000       0.0000      0.43887E-09
   5     0.0000       0.0000       0.0000      0.40559E-01   0.0000       0.0000     -0.40559E-01   0.0000       0.0000       0.0000       0.0000       0.0000      0.16492E-09
1
  VOLUMETRIC BUDGET FOR ENTIRE MODEL AT END OF TIME STEP 10 IN STRESS PERIOD   4
  ------------------------------------------------------------------------------

     CUMULATIVE VOLUMES      L**3       RATES FOR THIS TIME STEP      L**3/T
     ------------------                 ------------------------

           IN:                                      IN:
           ---                                      ---
             STORAGE =       1.9330E-05               STORAGE =           0.0000
       CONSTANT HEAD =           1.6856         CONSTANT HEAD =           0.0000
            RECHARGE =         990.0000              RECHARGE =           3.3000
               PIPES =           0.0000                 PIPES =           0.0000

            TOTAL IN =         991.6857              TOTAL IN =           3.3000

          OUT:                                     OUT:
          ----                                     ----
             STORAGE =       4.8330E-05               STORAGE =       1.1181E-13
       CONSTANT HEAD =         923.6321         CONSTANT HEAD =           3.1155
            RECHARGE =           0.0000              RECHARGE =           0.0000
               PIPES =          68.0521                 PIPES =           0.1845

           TOTAL OUT =         991.6842             TOTAL OUT =           3.3000

            IN - OUT =       1.4161E-03              IN - OUT =       2.2897E-07

 PERCENT DISCREPANCY =           0.00     PERCENT DISCREPANCY =           0.00






          TIME SUMMARY AT END OF TIME STEP  10 IN STRESS PERIOD    4
                    SECONDS     MINUTES      HOURS       DAYS        YEARS
                    -----------------------------------------------------------
   TIME STEP LENGTH 8.64000E+05  14400.      240.00      10.000     2.73785E-02
 STRESS PERIOD TIME 8.64000E+06 1.44000E+05  2400.0      100.00     0.27379    
         TOTAL TIME 3.45600E+07 5.76000E+05  9600.0      400.00      1.0951    
1
1
                            STRESS PERIOD NO.    5, LENGTH =   100.0000    
                            -----------------------------------------------

                              NUMBER OF TIME STEPS =    10

                               MULTIPLIER FOR DELT =     1.000

                            INITIAL TIME STEP SIZE =   10.00000    



                           RECHARGE
 READING ON UNIT   19 WITH FORMAT: (4E15.6)            
 
 CFP1RCH1RP SUBROUTINE READING FROM UNIT           53
 READING INPUT USED TO PARTICIAN RECHARGE AND WELL DATA
 0.0    0.0    0.0    1.0    0.0   
 DATA FOR WELLS:
 0.0    0.0    0.0   -.60    0.0   
 
 SOLVING FOR HEAD 
  LAMINAR PRECALCULATION
TUBE   2 SWITCH LAM -> TURB: LAM_RE (   35.40    ) >= TCRITREY:   20.00     TURB_RE:   104.6    
TUBE   3 SWITCH LAM -> TURB: LAM_RE (   48.88    ) >= TCRITREY:   20.00     TURB_RE:   127.9    
MODFLOW ITER.#  NEWTON-RAPHSON ITER.#   MAXIMUM NODE HEAD CHANGE
    SWITCH NODE  2 WITH Q   0.633827     TO LQ-FLOW WITH   0.500000E-01
    CHANGED    1 CONDUIT NODES DUE TO FHLQ IN STRESS PERIOD      5
         1                   1                  0.0002635669
    CHANGED    1 CONDUIT NODES DUE TO FHLQ IN STRESS PERIOD      5
         1                   2                  0.0000007737
    CHANGED    1 CONDUIT NODES DUE TO FHLQ IN STRESS PERIOD      5
         1                   3                  0.0000003423
MODFLOW ITER.#  NEWTON-RAPHSON ITER.#   MAXIMUM NODE HEAD CHANGE
         2                   1                  0.0001136283
         2                   2                  0.0000000089
         2                   3                  0.0000000003
MODFLOW ITER.#  NEWTON-RAPHSON ITER.#   MAXIMUM NODE HEAD CHANGE
         3                   1                  0.0000067294
         3                   2                  0.0000000000
         3                   3                  0.0000000000
MODFLOW ITER.#  NEWTON-RAPHSON ITER.#   MAXIMUM NODE HEAD CHANGE
         4                   1                  0.0000003986
         4                   2                  0.0000000000
         4                   3                  0.0000000000
MODFLOW ITER.#  NEWTON-RAPHSON ITER.#   MAXIMUM NODE HEAD CHANGE
         5                   1                  0.0000000231
         5                   2                  0.0000000000
         5                   3                  0.0000000000


     5 CALLS TO PCG ROUTINE FOR TIME STEP   1 IN STRESS PERIOD    5
    26 TOTAL ITERATIONS
MODFLOW ITER.#  NEWTON-RAPHSON ITER.#   MAXIMUM NODE HEAD CHANGE
         5                   1                  0.0000000006
         5                   2                  0.0000000000
         5                   3                  0.0000000000

 NO OUTPUT CONTROL FOR STRESS PERIOD    5   TIME STEP   1
 
 
 CFPM1 CRITERION OF CONVERGENCE:     0.1000000E-05
 CFPM1 MAXIMUM NUMBER OF ITERATIONS:   100
 
 
 CFPM1 RESULTS +++++++++++++++++++++++++++++++++++++++++++++++++++++++
 
 STRESS PERIOD/TIME STEP           5           1
 
NUMBER OF NEWTON RHAPSON ITERATIONS:     3
 
 ------- RESULTS OF FLOW CALCULATION -------
 
NODE# NODE HEAD[M] MATRIX HEAD [M] EXCHANGE [M^3/D]    CADSFLOW            PFPSFLOW         DIRECT RECHARGE        QWELL         FHLQ            CAUCHY         CAUCHY LQ               QLH              QFIX
    1  19.99962      20.00016       -0.4285454E-01       0.000000           0.000000           0.000000        0.000000         0.000000         0.000000         0.000000         0.000000         0.000000    
    2  19.99962      20.00000       -0.3014144E-01       0.000000           0.000000           0.000000        0.000000        0.5000000E-01     0.000000         0.000000         0.000000         0.000000    
    3  19.99962      20.00015       -0.1248938           0.000000           0.000000           0.000000        0.000000         0.000000         0.000000         0.000000         0.000000         0.000000    
    4  19.99962      20.00024       -0.9730489E-01       0.000000           0.000000          0.2000000       -.6000000         0.000000         0.000000         0.000000         0.000000         0.000000    
    5  19.99962      20.00031       -0.5480533E-01       0.000000           0.000000           0.000000        0.000000         0.000000         0.000000         0.000000         0.000000         0.000000    
 
TUBE  B  E  FLOW          Q [M^3/D]       DIAM.[M]        LEN.[M]        RE         RESIDENCE TIME [D]
   1   1   3   LAMI.         0.04285        0.10000       10.00000        7.07113        1.83271
   2   2   3   TURB.         0.08014        0.10000       10.00000       13.22358        0.98002
   3   3   4   TURB.         0.24789        0.10000       10.00000       40.90257        0.31683
   4   4   5   LAMI.        -0.05481        0.10000       10.00000        9.04305        1.43307
 

    BUDGET OF THE PIPE SYSTEM OF TIMESTEP    1 IN STRESS PERIOD    5
------------------------------------------------------------------------

  TOTAL SIMULATION TIME   410.000000000000      S
 
       CUMULATIVE VALUES (L**3)           RATES THIS TIME STEP (L**3/T)

            IN:                               IN:
     CONSTANT HEAD =   1.5311557          CONSTANT HEAD =   0.0000000    
      FHLQ BC (LQ) =   5.5000000           FHLQ BC (LQ) =  0.50000000E-01
   MATRIX EXCHANGE =   71.552060        MATRIX EXCHANGE =  0.35000000    
     PIPE RECHARGE =   92.000000          PIPE RECHARGE =  0.20000000    
           WELL BC =   0.0000000                WELL BC =   0.0000000    
       PFP STORAGE =   0.0000000            PFP STORAGE =   0.0000000    

     CUMULATIVE IN =   170.58322               TOTAL IN =  0.60000000    

           OUT:                               OUT:
     CONSTANT HEAD =   14.583216          CONSTANT HEAD =   0.0000000    
      FHLQ BC (LQ) =   0.0000000           FHLQ BC (LQ) =   0.0000000    
   MATRIX EXCHANGE =   0.0000000        MATRIX EXCHANGE =   0.0000000    
     PIPE RECHARGE =   0.0000000          PIPE RECHARGE =   0.0000000    
           WELL BC =   156.00000                WELL BC =  0.60000000    
       PFP STORAGE =   0.0000000            PFP STORAGE =   0.0000000    

    CUMULATIVE OUT =   170.58322              TOTAL OUT =  0.60000000    

          IN - OUT =  0.94219288E-07           IN - OUT = -0.48183679E-13
     PERCENT ERROR =  0.00                PERCENT ERROR =  0.00


 
 ------------------------NODE WATER BUDGET-----------------------
  STRESS PERIOD           5  TIME STEP           1
 TOTAL SIMULATION TIME   410.000000000000     
 
 FLOW TO THE NODE IN M^3/D
 
 NODE   FIXED HEAD     RECHARGE        QWELL  MATRIX EXCH      STORAGE      TUBE_IN     TUBE_OUT         CADS     FHLQ(LQ)       CAUCHY   CAUCHY(LQ)          QLH     IN - OUT
   1     0.0000       0.0000       0.0000      0.42855E-01   0.0000       0.0000     -0.42855E-01   0.0000       0.0000       0.0000       0.0000       0.0000     -0.60843E-09
   2     0.0000       0.0000       0.0000      0.30141E-01   0.0000       0.0000     -0.80141E-01   0.0000      0.50000E-01   0.0000       0.0000       0.0000     -0.28831E-09
   3     0.0000       0.0000       0.0000      0.12489       0.0000      0.12300     -0.24789       0.0000       0.0000       0.0000       0.0000       0.0000      0.30658E-08
   4     0.0000      0.20000     -0.60000      0.97305E-01   0.0000      0.30270       0.0000       0.0000       0.0000       0.0000       0.0000       0.0000     -0.27133E-08
   5     0.0000       0.0000       0.0000      0.54805E-01   0.0000       0.0000     -0.54805E-01   0.0000       0.0000       0.0000       0.0000       0.0000      0.54419E-09
 
 SOLVING FOR HEAD 
MODFLOW ITER.#  NEWTON-RAPHSON ITER.#   MAXIMUM NODE HEAD CHANGE
         1                   1                  0.0000000000
         1                   2                  0.0000000000
         1                   3                  0.0000000000
     1 CALLS TO PCG ROUTINE FOR TIME STEP   2 IN STRESS PERIOD    5
     1 TOTAL ITERATIONS
MODFLOW ITER.#  NEWTON-RAPHSON ITER.#   MAXIMUM NODE HEAD CHANGE
         1                   1                  0.0000000004
         1                   2                  0.0000000000
         1                   3                  0.0000000000

 NO OUTPUT CONTROL FOR STRESS PERIOD    5   TIME STEP   2
 
 
 CFPM1 CRITERION OF CONVERGENCE:     0.1000000E-05
 CFPM1 MAXIMUM NUMBER OF ITERATIONS:   100
 
 
 CFPM1 RESULTS +++++++++++++++++++++++++++++++++++++++++++++++++++++++
 
 STRESS PERIOD/TIME STEP           5           2
 
NUMBER OF NEWTON RHAPSON ITERATIONS:     3
 
 ------- RESULTS OF FLOW CALCULATION -------
 
NODE# NODE HEAD[M] MATRIX HEAD [M] EXCHANGE [M^3/D]    CADSFLOW            PFPSFLOW         DIRECT RECHARGE        QWELL         FHLQ            CAUCHY         CAUCHY LQ               QLH              QFIX
    1  19.99962      20.00016       -0.4285452E-01       0.000000           0.000000           0.000000        0.000000         0.000000         0.000000         0.000000         0.000000         0.000000    
    2  19.99962      20.00000       -0.3014147E-01       0.000000           0.000000           0.000000        0.000000        0.5000000E-01     0.000000         0.000000         0.000000         0.000000    
    3  19.99962      20.00015       -0.1248938           0.000000           0.000000           0.000000        0.000000         0.000000         0.000000         0.000000         0.000000         0.000000    
    4  19.99962      20.00024       -0.9730491E-01       0.000000           0.000000          0.2000000       -.6000000         0.000000         0.000000         0.000000         0.000000         0.000000    
    5  19.99962      20.00031       -0.5480531E-01       0.000000           0.000000           0.000000        0.000000         0.000000         0.000000         0.000000         0.000000         0.000000    
 
TUBE  B  E  FLOW          Q [M^3/D]       DIAM.[M]        LEN.[M]        RE         RESIDENCE TIME [D]
   1   1   3   LAMI.         0.04285        0.10000       10.00000        7.07113        1.83271
   2   2   3   TURB.         0.08014        0.10000       10.00000       13.22359        0.98001
   3   3   4   TURB.         0.24789        0.10000       10.00000       40.90257        0.31683
   4   4   5   LAMI.        -0.05481        0.10000       10.00000        9.04304        1.43307
 

    BUDGET OF THE PIPE SYSTEM OF TIMESTEP    2 IN STRESS PERIOD    5
------------------------------------------------------------------------

  TOTAL SIMULATION TIME   420.000000000000      S
 
       CUMULATIVE VALUES (L**3)           RATES THIS TIME STEP (L**3/T)

            IN:                               IN:
     CONSTANT HEAD =   1.5311557          CONSTANT HEAD =   0.0000000    
      FHLQ BC (LQ) =   6.0000000           FHLQ BC (LQ) =  0.50000000E-01
   MATRIX EXCHANGE =   75.052060        MATRIX EXCHANGE =  0.35000000    
     PIPE RECHARGE =   94.000000          PIPE RECHARGE =  0.20000000    
           WELL BC =   0.0000000                WELL BC =   0.0000000    
       PFP STORAGE =   0.0000000            PFP STORAGE =   0.0000000    

     CUMULATIVE IN =   176.58322               TOTAL IN =  0.60000000    

           OUT:                               OUT:
     CONSTANT HEAD =   14.583216          CONSTANT HEAD =   0.0000000    
      FHLQ BC (LQ) =   0.0000000           FHLQ BC (LQ) =   0.0000000    
   MATRIX EXCHANGE =   0.0000000        MATRIX EXCHANGE =   0.0000000    
     PIPE RECHARGE =   0.0000000          PIPE RECHARGE =   0.0000000    
           WELL BC =   162.00000                WELL BC =  0.60000000    
       PFP STORAGE =   0.0000000            PFP STORAGE =   0.0000000    

    CUMULATIVE OUT =   176.58322              TOTAL OUT =  0.60000000    

          IN - OUT =  0.94218805E-07           IN - OUT = -0.48239190E-13
     PERCENT ERROR =  0.00                PERCENT ERROR =  0.00


 
 ------------------------NODE WATER BUDGET-----------------------
  STRESS PERIOD           5  TIME STEP           2
 TOTAL SIMULATION TIME   420.000000000000     
 
 FLOW TO THE NODE IN M^3/D
 
 NODE   FIXED HEAD     RECHARGE        QWELL  MATRIX EXCH      STORAGE      TUBE_IN     TUBE_OUT         CADS     FHLQ(LQ)       CAUCHY   CAUCHY(LQ)          QLH     IN - OUT
   1     0.0000       0.0000       0.0000      0.42855E-01   0.0000       0.0000     -0.42855E-01   0.0000       0.0000       0.0000       0.0000       0.0000     -0.45432E-09
   2     0.0000       0.0000       0.0000      0.30141E-01   0.0000       0.0000     -0.80141E-01   0.0000      0.50000E-01   0.0000       0.0000       0.0000      0.47071E-09
   3     0.0000       0.0000       0.0000      0.12489       0.0000      0.12300     -0.24789       0.0000       0.0000       0.0000       0.0000       0.0000      0.16534E-08
   4     0.0000      0.20000     -0.60000      0.97305E-01   0.0000      0.30270       0.0000       0.0000       0.0000       0.0000       0.0000       0.0000     -0.17739E-08
   5     0.0000       0.0000       0.0000      0.54805E-01   0.0000       0.0000     -0.54805E-01   0.0000       0.0000       0.0000       0.0000       0.0000      0.10404E-09
 
 SOLVING FOR HEAD 
MODFLOW ITER.#  NEWTON-RAPHSON ITER.#   MAXIMUM NODE HEAD CHANGE
         1                   1                  0.0000000000
         1                   2                  0.0000000000
         1                   3                  0.0000000000
     1 CALLS TO PCG ROUTINE FOR TIME STEP   3 IN STRESS PERIOD    5
     1 TOTAL ITERATIONS
MODFLOW ITER.#  NEWTON-RAPHSON ITER.#   MAXIMUM NODE HEAD CHANGE
         1                   1                  0.0000000004
         1                   2                  0.0000000000
         1                   3                  0.0000000000

 NO OUTPUT CONTROL FOR STRESS PERIOD    5   TIME STEP   3
 
 
 CFPM1 CRITERION OF CONVERGENCE:     0.1000000E-05
 CFPM1 MAXIMUM NUMBER OF ITERATIONS:   100
 
 
 CFPM1 RESULTS +++++++++++++++++++++++++++++++++++++++++++++++++++++++
 
 STRESS PERIOD/TIME STEP           5           3
 
NUMBER OF NEWTON RHAPSON ITERATIONS:     3
 
 ------- RESULTS OF FLOW CALCULATION -------
 
NODE# NODE HEAD[M] MATRIX HEAD [M] EXCHANGE [M^3/D]    CADSFLOW            PFPSFLOW         DIRECT RECHARGE        QWELL         FHLQ            CAUCHY         CAUCHY LQ               QLH              QFIX
    1  19.99962      20.00016       -0.4285452E-01       0.000000           0.000000           0.000000        0.000000         0.000000         0.000000         0.000000         0.000000         0.000000    
    2  19.99962      20.00000       -0.3014150E-01       0.000000           0.000000           0.000000        0.000000        0.5000000E-01     0.000000         0.000000         0.000000         0.000000    
    3  19.99962      20.00015       -0.1248938           0.000000           0.000000           0.000000        0.000000         0.000000         0.000000         0.000000         0.000000         0.000000    
    4  19.99962      20.00024       -0.9730487E-01       0.000000           0.000000          0.2000000       -.6000000         0.000000         0.000000         0.000000         0.000000         0.000000    
    5  19.99962      20.00031       -0.5480530E-01       0.000000           0.000000           0.000000        0.000000         0.000000         0.000000         0.000000         0.000000         0.000000    
 
TUBE  B  E  FLOW          Q [M^3/D]       DIAM.[M]        LEN.[M]        RE         RESIDENCE TIME [D]
   1   1   3   LAMI.         0.04285        0.10000       10.00000        7.07113        1.83271
   2   2   3   TURB.         0.08014        0.10000       10.00000       13.22359        0.98001
   3   3   4   TURB.         0.24789        0.10000       10.00000       40.90258        0.31683
   4   4   5   LAMI.        -0.05481        0.10000       10.00000        9.04304        1.43307
 

    BUDGET OF THE PIPE SYSTEM OF TIMESTEP    3 IN STRESS PERIOD    5
------------------------------------------------------------------------

  TOTAL SIMULATION TIME   430.000000000000      S
 
       CUMULATIVE VALUES (L**3)           RATES THIS TIME STEP (L**3/T)

            IN:                               IN:
     CONSTANT HEAD =   1.5311557          CONSTANT HEAD =   0.0000000    
      FHLQ BC (LQ) =   6.5000000           FHLQ BC (LQ) =  0.50000000E-01
   MATRIX EXCHANGE =   78.552060        MATRIX EXCHANGE =  0.35000000    
     PIPE RECHARGE =   96.000000          PIPE RECHARGE =  0.20000000    
           WELL BC =   0.0000000                WELL BC =   0.0000000    
       PFP STORAGE =   0.0000000            PFP STORAGE =   0.0000000    

     CUMULATIVE IN =   182.58322               TOTAL IN =  0.60000000    

           OUT:                               OUT:
     CONSTANT HEAD =   14.583216          CONSTANT HEAD =   0.0000000    
      FHLQ BC (LQ) =   0.0000000           FHLQ BC (LQ) =   0.0000000    
   MATRIX EXCHANGE =   0.0000000        MATRIX EXCHANGE =   0.0000000    
     PIPE RECHARGE =   0.0000000          PIPE RECHARGE =   0.0000000    
           WELL BC =   168.00000                WELL BC =  0.60000000    
       PFP STORAGE =   0.0000000            PFP STORAGE =   0.0000000    

    CUMULATIVE OUT =   182.58322              TOTAL OUT =  0.60000000    

          IN - OUT =  0.94221107E-07           IN - OUT =  0.23081537E-12
     PERCENT ERROR =  0.00                PERCENT ERROR =  0.00


 
 ------------------------NODE WATER BUDGET-----------------------
  STRESS PERIOD           5  TIME STEP           3
 TOTAL SIMULATION TIME   430.000000000000     
 
 FLOW TO THE NODE IN M^3/D
 
 NODE   FIXED HEAD     RECHARGE        QWELL  MATRIX EXCH      STORAGE      TUBE_IN     TUBE_OUT         CADS     FHLQ(LQ)       CAUCHY   CAUCHY(LQ)          QLH     IN - OUT
   1     0.0000       0.0000       0.0000      0.42855E-01   0.0000       0.0000     -0.42855E-01   0.0000       0.0000       0.0000       0.0000       0.0000     -0.17817E-09
   2     0.0000       0.0000       0.0000      0.30142E-01   0.0000       0.0000     -0.80142E-01   0.0000      0.50000E-01   0.0000       0.0000       0.0000      0.25028E-08
   3     0.0000       0.0000       0.0000      0.12489       0.0000      0.12300     -0.24789       0.0000       0.0000       0.0000       0.0000       0.0000     -0.32543E-08
   4     0.0000      0.20000     -0.60000      0.97305E-01   0.0000      0.30270       0.0000       0.0000       0.0000       0.0000       0.0000       0.0000      0.87647E-09
   5     0.0000       0.0000       0.0000      0.54805E-01   0.0000       0.0000     -0.54805E-01   0.0000       0.0000       0.0000       0.0000       0.0000      0.53477E-10
 
 SOLVING FOR HEAD 
MODFLOW ITER.#  NEWTON-RAPHSON ITER.#   MAXIMUM NODE HEAD CHANGE
         1                   1                  0.0000000000
         1                   2                  0.0000000000
         1                   3                  0.0000000000
     1 CALLS TO PCG ROUTINE FOR TIME STEP   4 IN STRESS PERIOD    5
     1 TOTAL ITERATIONS
MODFLOW ITER.#  NEWTON-RAPHSON ITER.#   MAXIMUM NODE HEAD CHANGE
         1                   1                  0.0000000002
         1                   2                  0.0000000000
         1                   3                  0.0000000000

 NO OUTPUT CONTROL FOR STRESS PERIOD    5   TIME STEP   4
 
 
 CFPM1 CRITERION OF CONVERGENCE:     0.1000000E-05
 CFPM1 MAXIMUM NUMBER OF ITERATIONS:   100
 
 
 CFPM1 RESULTS +++++++++++++++++++++++++++++++++++++++++++++++++++++++
 
 STRESS PERIOD/TIME STEP           5           4
 
NUMBER OF NEWTON RHAPSON ITERATIONS:     3
 
 ------- RESULTS OF FLOW CALCULATION -------
 
NODE# NODE HEAD[M] MATRIX HEAD [M] EXCHANGE [M^3/D]    CADSFLOW            PFPSFLOW         DIRECT RECHARGE        QWELL         FHLQ            CAUCHY         CAUCHY LQ               QLH              QFIX
    1  19.99962      20.00016       -0.4285452E-01       0.000000           0.000000           0.000000        0.000000         0.000000         0.000000         0.000000         0.000000         0.000000    
    2  19.99962      20.00000       -0.3014152E-01       0.000000           0.000000           0.000000        0.000000        0.5000000E-01     0.000000         0.000000         0.000000         0.000000    
    3  19.99962      20.00015       -0.1248938           0.000000           0.000000           0.000000        0.000000         0.000000         0.000000         0.000000         0.000000         0.000000    
    4  19.99962      20.00024       -0.9730487E-01       0.000000           0.000000          0.2000000       -.6000000         0.000000         0.000000         0.000000         0.000000         0.000000    
    5  19.99962      20.00031       -0.5480529E-01       0.000000           0.000000           0.000000        0.000000         0.000000         0.000000         0.000000         0.000000         0.000000    
 
TUBE  B  E  FLOW          Q [M^3/D]       DIAM.[M]        LEN.[M]        RE         RESIDENCE TIME [D]
   1   1   3   LAMI.         0.04285        0.10000       10.00000        7.07113        1.83271
   2   2   3   TURB.         0.08014        0.10000       10.00000       13.22360        0.98001
   3   3   4   TURB.         0.24789        0.10000       10.00000       40.90258        0.31683
   4   4   5   LAMI.        -0.05481        0.10000       10.00000        9.04304        1.43307
 

    BUDGET OF THE PIPE SYSTEM OF TIMESTEP    4 IN STRESS PERIOD    5
------------------------------------------------------------------------

  TOTAL SIMULATION TIME   440.000000000000      S
 
       CUMULATIVE VALUES (L**3)           RATES THIS TIME STEP (L**3/T)

            IN:                               IN:
     CONSTANT HEAD =   1.5311557          CONSTANT HEAD =   0.0000000    
      FHLQ BC (LQ) =   7.0000000           FHLQ BC (LQ) =  0.50000000E-01
   MATRIX EXCHANGE =   82.052060        MATRIX EXCHANGE =  0.35000000    
     PIPE RECHARGE =   98.000000          PIPE RECHARGE =  0.20000000    
           WELL BC =   0.0000000                WELL BC =   0.0000000    
       PFP STORAGE =   0.0000000            PFP STORAGE =   0.0000000    

     CUMULATIVE IN =   188.58322               TOTAL IN =  0.60000000    

           OUT:                               OUT:
     CONSTANT HEAD =   14.583216          CONSTANT HEAD =   0.0000000    
      FHLQ BC (LQ) =   0.0000000           FHLQ BC (LQ) =   0.0000000    
   MATRIX EXCHANGE =   0.0000000        MATRIX EXCHANGE =   0.0000000    
     PIPE RECHARGE =   0.0000000          PIPE RECHARGE =   0.0000000    
           WELL BC =   174.00000                WELL BC =  0.60000000    
       PFP STORAGE =   0.0000000            PFP STORAGE =   0.0000000    

    CUMULATIVE OUT =   188.58322              TOTAL OUT =  0.60000000    

          IN - OUT =  0.94220624E-07           IN - OUT = -0.48183679E-13
     PERCENT ERROR =  0.00                PERCENT ERROR =  0.00


 
 ------------------------NODE WATER BUDGET-----------------------
  STRESS PERIOD           5  TIME STEP           4
 TOTAL SIMULATION TIME   440.000000000000     
 
 FLOW TO THE NODE IN M^3/D
 
 NODE   FIXED HEAD     RECHARGE        QWELL  MATRIX EXCH      STORAGE      TUBE_IN     TUBE_OUT         CADS     FHLQ(LQ)       CAUCHY   CAUCHY(LQ)          QLH     IN - OUT
   1     0.0000       0.0000       0.0000      0.42855E-01   0.0000       0.0000     -0.42855E-01   0.0000       0.0000       0.0000       0.0000       0.0000      0.14087E-09
   2     0.0000       0.0000       0.0000      0.30142E-01   0.0000       0.0000     -0.80142E-01   0.0000      0.50000E-01   0.0000       0.0000       0.0000      0.17236E-08
   3     0.0000       0.0000       0.0000      0.12489       0.0000      0.12300     -0.24789       0.0000       0.0000       0.0000       0.0000       0.0000     -0.28591E-08
   4     0.0000      0.20000     -0.60000      0.97305E-01   0.0000      0.30270       0.0000       0.0000       0.0000       0.0000       0.0000       0.0000      0.14741E-08
   5     0.0000       0.0000       0.0000      0.54805E-01   0.0000       0.0000     -0.54805E-01   0.0000       0.0000       0.0000       0.0000       0.0000     -0.47952E-09
 
 SOLVING FOR HEAD 
MODFLOW ITER.#  NEWTON-RAPHSON ITER.#   MAXIMUM NODE HEAD CHANGE
         1                   1                  0.0000000000
         1                   2                  0.0000000000
         1                   3                  0.0000000000
     1 CALLS TO PCG ROUTINE FOR TIME STEP   5 IN STRESS PERIOD    5
     1 TOTAL ITERATIONS

 MAXIMUM HEAD CHANGE FOR EACH ITERATION (1 INDICATES THE FIRST INNER ITERATION):

    HEAD CHANGE    HEAD CHANGE    HEAD CHANGE    HEAD CHANGE    HEAD CHANGE 
   LAYER,ROW,COL  LAYER,ROW,COL  LAYER,ROW,COL  LAYER,ROW,COL  LAYER,ROW,COL
 ---------------------------------------------------------------------------
  1  0.3596E-09
   (  2,  1,  4)

 MAXIMUM RESIDUAL FOR EACH ITERATION (1 INDICATES THE FIRST INNER ITERATION):

    RESIDUAL       RESIDUAL       RESIDUAL       RESIDUAL       RESIDUAL    
   LAYER,ROW,COL  LAYER,ROW,COL  LAYER,ROW,COL  LAYER,ROW,COL  LAYER,ROW,COL
 ---------------------------------------------------------------------------
  1  0.3625E-06
   (  3,  3,  2)


MODFLOW ITER.#  NEWTON-RAPHSON ITER.#   MAXIMUM NODE HEAD CHANGE
         1                   1                  0.0000000002
         1                   2                  0.0000000000
         1                   3                  0.0000000000

 NO OUTPUT CONTROL FOR STRESS PERIOD    5   TIME STEP   5
 
 
 CFPM1 CRITERION OF CONVERGENCE:     0.1000000E-05
 CFPM1 MAXIMUM NUMBER OF ITERATIONS:   100
 
 
 CFPM1 RESULTS +++++++++++++++++++++++++++++++++++++++++++++++++++++++
 
 STRESS PERIOD/TIME STEP           5           5
 
NUMBER OF NEWTON RHAPSON ITERATIONS:     3
 
 ------- RESULTS OF FLOW CALCULATION -------
 
NODE# NODE HEAD[M] MATRIX HEAD [M] EXCHANGE [M^3/D]    CADSFLOW            PFPSFLOW         DIRECT RECHARGE        QWELL         FHLQ            CAUCHY         CAUCHY LQ               QLH              QFIX
    1  19.99962      20.00016       -0.4285452E-01       0.000000           0.000000           0.000000        0.000000         0.000000         0.000000         0.000000         0.000000         0.000000    
    2  19.99962      20.00000       -0.3014153E-01       0.000000           0.000000           0.000000        0.000000        0.5000000E-01     0.000000         0.000000         0.000000         0.000000    
    3  19.99962      20.00015       -0.1248938           0.000000           0.000000           0.000000        0.000000         0.000000         0.000000         0.000000         0.000000         0.000000    
    4  19.99962      20.00024       -0.9730486E-01       0.000000           0.000000          0.2000000       -.6000000         0.000000         0.000000         0.000000         0.000000         0.000000    
    5  19.99962      20.00031       -0.5480529E-01       0.000000           0.000000           0.000000        0.000000         0.000000         0.000000         0.000000         0.000000         0.000000    
 
TUBE  B  E  FLOW          Q [M^3/D]       DIAM.[M]        LEN.[M]        RE         RESIDENCE TIME [D]
   1   1   3   LAMI.         0.04285        0.10000       10.00000        7.07113        1.83271
   2   2   3   TURB.         0.08014        0.10000       10.00000       13.22360        0.98001
   3   3   4   TURB.         0.24789        0.10000       10.00000       40.90259        0.31683
   4   4   5   LAMI.        -0.05481        0.10000       10.00000        9.04304        1.43307
 

    BUDGET OF THE PIPE SYSTEM OF TIMESTEP    5 IN STRESS PERIOD    5
------------------------------------------------------------------------

  TOTAL SIMULATION TIME   450.000000000000      S
 
       CUMULATIVE VALUES (L**3)           RATES THIS TIME STEP (L**3/T)

            IN:                               IN:
     CONSTANT HEAD =   1.5311557          CONSTANT HEAD =   0.0000000    
      FHLQ BC (LQ) =   7.5000000           FHLQ BC (LQ) =  0.50000000E-01
   MATRIX EXCHANGE =   85.552060        MATRIX EXCHANGE =  0.35000000    
     PIPE RECHARGE =   100.00000          PIPE RECHARGE =  0.20000000    
           WELL BC =   0.0000000                WELL BC =   0.0000000    
       PFP STORAGE =   0.0000000            PFP STORAGE =   0.0000000    

     CUMULATIVE IN =   194.58322               TOTAL IN =  0.60000000    

           OUT:                               OUT:
     CONSTANT HEAD =   14.583216          CONSTANT HEAD =   0.0000000    
      FHLQ BC (LQ) =   0.0000000           FHLQ BC (LQ) =   0.0000000    
   MATRIX EXCHANGE =   0.0000000        MATRIX EXCHANGE =   0.0000000    
     PIPE RECHARGE =   0.0000000          PIPE RECHARGE =   0.0000000    
           WELL BC =   180.00000                WELL BC =  0.60000000    
       PFP STORAGE =   0.0000000            PFP STORAGE =   0.0000000    

    CUMULATIVE OUT =   194.58322              TOTAL OUT =  0.60000000    

          IN - OUT =  0.94217370E-07           IN - OUT = -0.32723824E-12
     PERCENT ERROR =  0.00                PERCENT ERROR =  0.00


 
 ------------------------NODE WATER BUDGET-----------------------
  STRESS PERIOD           5  TIME STEP           5
 TOTAL SIMULATION TIME   450.000000000000     
 
 FLOW TO THE NODE IN M^3/D
 
 NODE   FIXED HEAD     RECHARGE        QWELL  MATRIX EXCH      STORAGE      TUBE_IN     TUBE_OUT         CADS     FHLQ(LQ)       CAUCHY   CAUCHY(LQ)          QLH     IN - OUT
   1     0.0000       0.0000       0.0000      0.42855E-01   0.0000       0.0000     -0.42855E-01   0.0000       0.0000       0.0000       0.0000       0.0000     -0.14653E-09
   2     0.0000       0.0000       0.0000      0.30142E-01   0.0000       0.0000     -0.80142E-01   0.0000      0.50000E-01   0.0000       0.0000       0.0000      0.17049E-08
   3     0.0000       0.0000       0.0000      0.12489       0.0000      0.12300     -0.24789       0.0000       0.0000       0.0000       0.0000       0.0000     -0.26103E-08
   4     0.0000      0.20000     -0.60000      0.97305E-01   0.0000      0.30270       0.0000       0.0000       0.0000       0.0000       0.0000       0.0000      0.15545E-08
   5     0.0000       0.0000       0.0000      0.54805E-01   0.0000       0.0000     -0.54805E-01   0.0000       0.0000       0.0000       0.0000       0.0000     -0.50287E-09
 
 SOLVING FOR HEAD 
MODFLOW ITER.#  NEWTON-RAPHSON ITER.#   MAXIMUM NODE HEAD CHANGE
         1                   1                  0.0000000000
         1                   2                  0.0000000000
         1                   3                  0.0000000000
     1 CALLS TO PCG ROUTINE FOR TIME STEP   6 IN STRESS PERIOD    5
     1 TOTAL ITERATIONS
MODFLOW ITER.#  NEWTON-RAPHSON ITER.#   MAXIMUM NODE HEAD CHANGE
         1                   1                  0.0000000001
         1                   2                  0.0000000000
         1                   3                  0.0000000000

 NO OUTPUT CONTROL FOR STRESS PERIOD    5   TIME STEP   6
 
 
 CFPM1 CRITERION OF CONVERGENCE:     0.1000000E-05
 CFPM1 MAXIMUM NUMBER OF ITERATIONS:   100
 
 
 CFPM1 RESULTS +++++++++++++++++++++++++++++++++++++++++++++++++++++++
 
 STRESS PERIOD/TIME STEP           5           6
 
NUMBER OF NEWTON RHAPSON ITERATIONS:     3
 
 ------- RESULTS OF FLOW CALCULATION -------
 
NODE# NODE HEAD[M] MATRIX HEAD [M] EXCHANGE [M^3/D]    CADSFLOW            PFPSFLOW         DIRECT RECHARGE        QWELL         FHLQ            CAUCHY         CAUCHY LQ               QLH              QFIX
    1  19.99962      20.00016       -0.4285452E-01       0.000000           0.000000           0.000000        0.000000         0.000000         0.000000         0.000000         0.000000         0.000000    
    2  19.99962      20.00000       -0.3014154E-01       0.000000           0.000000           0.000000        0.000000        0.5000000E-01     0.000000         0.000000         0.000000         0.000000    
    3  19.99962      20.00015       -0.1248938           0.000000           0.000000           0.000000        0.000000         0.000000         0.000000         0.000000         0.000000         0.000000    
    4  19.99962      20.00024       -0.9730486E-01       0.000000           0.000000          0.2000000       -.6000000         0.000000         0.000000         0.000000         0.000000         0.000000    
    5  19.99962      20.00031       -0.5480528E-01       0.000000           0.000000           0.000000        0.000000         0.000000         0.000000         0.000000         0.000000         0.000000    
 
TUBE  B  E  FLOW          Q [M^3/D]       DIAM.[M]        LEN.[M]        RE         RESIDENCE TIME [D]
   1   1   3   LAMI.         0.04285        0.10000       10.00000        7.07113        1.83271
   2   2   3   TURB.         0.08014        0.10000       10.00000       13.22360        0.98001
   3   3   4   TURB.         0.24789        0.10000       10.00000       40.90259        0.31683
   4   4   5   LAMI.        -0.05481        0.10000       10.00000        9.04304        1.43307
 

    BUDGET OF THE PIPE SYSTEM OF TIMESTEP    6 IN STRESS PERIOD    5
------------------------------------------------------------------------

  TOTAL SIMULATION TIME   460.000000000000      S
 
       CUMULATIVE VALUES (L**3)           RATES THIS TIME STEP (L**3/T)

            IN:                               IN:
     CONSTANT HEAD =   1.5311557          CONSTANT HEAD =   0.0000000    
      FHLQ BC (LQ) =   8.0000000           FHLQ BC (LQ) =  0.50000000E-01
   MATRIX EXCHANGE =   89.052060        MATRIX EXCHANGE =  0.35000000    
     PIPE RECHARGE =   102.00000          PIPE RECHARGE =  0.20000000    
           WELL BC =   0.0000000                WELL BC =   0.0000000    
       PFP STORAGE =   0.0000000            PFP STORAGE =   0.0000000    

     CUMULATIVE IN =   200.58322               TOTAL IN =  0.60000000    

           OUT:                               OUT:
     CONSTANT HEAD =   14.583216          CONSTANT HEAD =   0.0000000    
      FHLQ BC (LQ) =   0.0000000           FHLQ BC (LQ) =   0.0000000    
   MATRIX EXCHANGE =   0.0000000        MATRIX EXCHANGE =   0.0000000    
     PIPE RECHARGE =   0.0000000          PIPE RECHARGE =   0.0000000    
           WELL BC =   186.00000                WELL BC =  0.60000000    
       PFP STORAGE =   0.0000000            PFP STORAGE =   0.0000000    

    CUMULATIVE OUT =   200.58322              TOTAL OUT =  0.60000000    

          IN - OUT =  0.94214073E-07           IN - OUT = -0.32729375E-12
     PERCENT ERROR =  0.00                PERCENT ERROR =  0.00


 
 ------------------------NODE WATER BUDGET-----------------------
  STRESS PERIOD           5  TIME STEP           6
 TOTAL SIMULATION TIME   460.000000000000     
 
 FLOW TO THE NODE IN M^3/D
 
 NODE   FIXED HEAD     RECHARGE        QWELL  MATRIX EXCH      STORAGE      TUBE_IN     TUBE_OUT         CADS     FHLQ(LQ)       CAUCHY   CAUCHY(LQ)          QLH     IN - OUT
   1     0.0000       0.0000       0.0000      0.42855E-01   0.0000       0.0000     -0.42855E-01   0.0000       0.0000       0.0000       0.0000       0.0000     -0.14207E-09
   2     0.0000       0.0000       0.0000      0.30142E-01   0.0000       0.0000     -0.80142E-01   0.0000      0.50000E-01   0.0000       0.0000       0.0000      0.22824E-09
   3     0.0000       0.0000       0.0000      0.12489       0.0000      0.12300     -0.24789       0.0000       0.0000       0.0000       0.0000       0.0000      0.25978E-09
   4     0.0000      0.20000     -0.60000      0.97305E-01   0.0000      0.30270       0.0000       0.0000       0.0000       0.0000       0.0000       0.0000     -0.87338E-09
   5     0.0000       0.0000       0.0000      0.54805E-01   0.0000       0.0000     -0.54805E-01   0.0000       0.0000       0.0000       0.0000       0.0000      0.52710E-09
 
 SOLVING FOR HEAD 
MODFLOW ITER.#  NEWTON-RAPHSON ITER.#   MAXIMUM NODE HEAD CHANGE
         1                   1                  0.0000000000
         1                   2                  0.0000000000
         1                   3                  0.0000000000
     1 CALLS TO PCG ROUTINE FOR TIME STEP   7 IN STRESS PERIOD    5
     1 TOTAL ITERATIONS
MODFLOW ITER.#  NEWTON-RAPHSON ITER.#   MAXIMUM NODE HEAD CHANGE
         1                   1                  0.0000000001
         1                   2                  0.0000000000
         1                   3                  0.0000000000

 NO OUTPUT CONTROL FOR STRESS PERIOD    5   TIME STEP   7
 
 
 CFPM1 CRITERION OF CONVERGENCE:     0.1000000E-05
 CFPM1 MAXIMUM NUMBER OF ITERATIONS:   100
 
 
 CFPM1 RESULTS +++++++++++++++++++++++++++++++++++++++++++++++++++++++
 
 STRESS PERIOD/TIME STEP           5           7
 
NUMBER OF NEWTON RHAPSON ITERATIONS:     3
 
 ------- RESULTS OF FLOW CALCULATION -------
 
NODE# NODE HEAD[M] MATRIX HEAD [M] EXCHANGE [M^3/D]    CADSFLOW            PFPSFLOW         DIRECT RECHARGE        QWELL         FHLQ            CAUCHY         CAUCHY LQ               QLH              QFIX
    1  19.99962      20.00016       -0.4285452E-01       0.000000           0.000000           0.000000        0.000000         0.000000         0.000000         0.000000         0.000000         0.000000    
    2  19.99962      20.00000       -0.3014155E-01       0.000000           0.000000           0.000000        0.000000        0.5000000E-01     0.000000         0.000000         0.000000         0.000000    
    3  19.99962      20.00015       -0.1248938           0.000000           0.000000           0.000000        0.000000         0.000000         0.000000         0.000000         0.000000         0.000000    
    4  19.99962      20.00024       -0.9730485E-01       0.000000           0.000000          0.2000000       -.6000000         0.000000         0.000000         0.000000         0.000000         0.000000    
    5  19.99962      20.00031       -0.5480528E-01       0.000000           0.000000           0.000000        0.000000         0.000000         0.000000         0.000000         0.000000         0.000000    
 
TUBE  B  E  FLOW          Q [M^3/D]       DIAM.[M]        LEN.[M]        RE         RESIDENCE TIME [D]
   1   1   3   LAMI.         0.04285        0.10000       10.00000        7.07113        1.83271
   2   2   3   TURB.         0.08014        0.10000       10.00000       13.22360        0.98001
   3   3   4   TURB.         0.24789        0.10000       10.00000       40.90259        0.31683
   4   4   5   LAMI.        -0.05481        0.10000       10.00000        9.04304        1.43307
 

    BUDGET OF THE PIPE SYSTEM OF TIMESTEP    7 IN STRESS PERIOD    5
------------------------------------------------------------------------

  TOTAL SIMULATION TIME   470.000000000000      S
 
       CUMULATIVE VALUES (L**3)           RATES THIS TIME STEP (L**3/T)

            IN:                               IN:
     CONSTANT HEAD =   1.5311557          CONSTANT HEAD =   0.0000000    
      FHLQ BC (LQ) =   8.5000000           FHLQ BC (LQ) =  0.50000000E-01
   MATRIX EXCHANGE =   92.552060        MATRIX EXCHANGE =  0.35000000    
     PIPE RECHARGE =   104.00000          PIPE RECHARGE =  0.20000000    
           WELL BC =   0.0000000                WELL BC =   0.0000000    
       PFP STORAGE =   0.0000000            PFP STORAGE =   0.0000000    

     CUMULATIVE IN =   206.58322               TOTAL IN =  0.60000000    

           OUT:                               OUT:
     CONSTANT HEAD =   14.583216          CONSTANT HEAD =   0.0000000    
      FHLQ BC (LQ) =   0.0000000           FHLQ BC (LQ) =   0.0000000    
   MATRIX EXCHANGE =   0.0000000        MATRIX EXCHANGE =   0.0000000    
     PIPE RECHARGE =   0.0000000          PIPE RECHARGE =   0.0000000    
           WELL BC =   192.00000                WELL BC =  0.60000000    
       PFP STORAGE =   0.0000000            PFP STORAGE =   0.0000000    

    CUMULATIVE OUT =   206.58322              TOTAL OUT =  0.60000000    

          IN - OUT =  0.94213576E-07           IN - OUT = -0.48183679E-13
     PERCENT ERROR =  0.00                PERCENT ERROR =  0.00


 
 ------------------------NODE WATER BUDGET-----------------------
  STRESS PERIOD           5  TIME STEP           7
 TOTAL SIMULATION TIME   470.000000000000     
 
 FLOW TO THE NODE IN M^3/D
 
 NODE   FIXED HEAD     RECHARGE        QWELL  MATRIX EXCH      STORAGE      TUBE_IN     TUBE_OUT         CADS     FHLQ(LQ)       CAUCHY   CAUCHY(LQ)          QLH     IN - OUT
   1     0.0000       0.0000       0.0000      0.42855E-01   0.0000       0.0000     -0.42855E-01   0.0000       0.0000       0.0000       0.0000       0.0000      0.55961E-09
   2     0.0000       0.0000       0.0000      0.30142E-01   0.0000       0.0000     -0.80142E-01   0.0000      0.50000E-01   0.0000       0.0000       0.0000      0.12156E-08
   3     0.0000       0.0000       0.0000      0.12489       0.0000      0.12300     -0.24789       0.0000       0.0000       0.0000       0.0000       0.0000     -0.33642E-08
   4     0.0000      0.20000     -0.60000      0.97305E-01   0.0000      0.30270       0.0000       0.0000       0.0000       0.0000       0.0000       0.0000      0.21360E-08
   5     0.0000       0.0000       0.0000      0.54805E-01   0.0000       0.0000     -0.54805E-01   0.0000       0.0000       0.0000       0.0000       0.0000     -0.54700E-09
 
 SOLVING FOR HEAD 
MODFLOW ITER.#  NEWTON-RAPHSON ITER.#   MAXIMUM NODE HEAD CHANGE
         1                   1                  0.0000000000
         1                   2                  0.0000000000
         1                   3                  0.0000000000
     1 CALLS TO PCG ROUTINE FOR TIME STEP   8 IN STRESS PERIOD    5
     1 TOTAL ITERATIONS
MODFLOW ITER.#  NEWTON-RAPHSON ITER.#   MAXIMUM NODE HEAD CHANGE
         1                   1                  0.0000000000
         1                   2                  0.0000000000
         1                   3                  0.0000000000

 NO OUTPUT CONTROL FOR STRESS PERIOD    5   TIME STEP   8
 
 
 CFPM1 CRITERION OF CONVERGENCE:     0.1000000E-05
 CFPM1 MAXIMUM NUMBER OF ITERATIONS:   100
 
 
 CFPM1 RESULTS +++++++++++++++++++++++++++++++++++++++++++++++++++++++
 
 STRESS PERIOD/TIME STEP           5           8
 
NUMBER OF NEWTON RHAPSON ITERATIONS:     3
 
 ------- RESULTS OF FLOW CALCULATION -------
 
NODE# NODE HEAD[M] MATRIX HEAD [M] EXCHANGE [M^3/D]    CADSFLOW            PFPSFLOW         DIRECT RECHARGE        QWELL         FHLQ            CAUCHY         CAUCHY LQ               QLH              QFIX
    1  19.99962      20.00016       -0.4285452E-01       0.000000           0.000000           0.000000        0.000000         0.000000         0.000000         0.000000         0.000000         0.000000    
    2  19.99962      20.00000       -0.3014155E-01       0.000000           0.000000           0.000000        0.000000        0.5000000E-01     0.000000         0.000000         0.000000         0.000000    
    3  19.99962      20.00015       -0.1248938           0.000000           0.000000           0.000000        0.000000         0.000000         0.000000         0.000000         0.000000         0.000000    
    4  19.99962      20.00024       -0.9730485E-01       0.000000           0.000000          0.2000000       -.6000000         0.000000         0.000000         0.000000         0.000000         0.000000    
    5  19.99962      20.00031       -0.5480528E-01       0.000000           0.000000           0.000000        0.000000         0.000000         0.000000         0.000000         0.000000         0.000000    
 
TUBE  B  E  FLOW          Q [M^3/D]       DIAM.[M]        LEN.[M]        RE         RESIDENCE TIME [D]
   1   1   3   LAMI.         0.04285        0.10000       10.00000        7.07113        1.83271
   2   2   3   TURB.         0.08014        0.10000       10.00000       13.22360        0.98001
   3   3   4   TURB.         0.24789        0.10000       10.00000       40.90259        0.31683
   4   4   5   LAMI.        -0.05481        0.10000       10.00000        9.04304        1.43307
 

    BUDGET OF THE PIPE SYSTEM OF TIMESTEP    8 IN STRESS PERIOD    5
------------------------------------------------------------------------

  TOTAL SIMULATION TIME   480.000000000000      S
 
       CUMULATIVE VALUES (L**3)           RATES THIS TIME STEP (L**3/T)

            IN:                               IN:
     CONSTANT HEAD =   1.5311557          CONSTANT HEAD =   0.0000000    
      FHLQ BC (LQ) =   9.0000000           FHLQ BC (LQ) =  0.50000000E-01
   MATRIX EXCHANGE =   96.052060        MATRIX EXCHANGE =  0.35000000    
     PIPE RECHARGE =   106.00000          PIPE RECHARGE =  0.20000000    
           WELL BC =   0.0000000                WELL BC =   0.0000000    
       PFP STORAGE =   0.0000000            PFP STORAGE =   0.0000000    

     CUMULATIVE IN =   212.58322               TOTAL IN =  0.60000000    

           OUT:                               OUT:
     CONSTANT HEAD =   14.583216          CONSTANT HEAD =   0.0000000    
      FHLQ BC (LQ) =   0.0000000           FHLQ BC (LQ) =   0.0000000    
   MATRIX EXCHANGE =   0.0000000        MATRIX EXCHANGE =   0.0000000    
     PIPE RECHARGE =   0.0000000          PIPE RECHARGE =   0.0000000    
           WELL BC =   198.00000                WELL BC =  0.60000000    
       PFP STORAGE =   0.0000000            PFP STORAGE =   0.0000000    

    CUMULATIVE OUT =   212.58322              TOTAL OUT =  0.60000000    

          IN - OUT =  0.94207522E-07           IN - OUT = -0.60623728E-12
     PERCENT ERROR =  0.00                PERCENT ERROR =  0.00


 
 ------------------------NODE WATER BUDGET-----------------------
  STRESS PERIOD           5  TIME STEP           8
 TOTAL SIMULATION TIME   480.000000000000     
 
 FLOW TO THE NODE IN M^3/D
 
 NODE   FIXED HEAD     RECHARGE        QWELL  MATRIX EXCH      STORAGE      TUBE_IN     TUBE_OUT         CADS     FHLQ(LQ)       CAUCHY   CAUCHY(LQ)          QLH     IN - OUT
   1     0.0000       0.0000       0.0000      0.42855E-01   0.0000       0.0000     -0.42855E-01   0.0000       0.0000       0.0000       0.0000       0.0000     -0.19648E-09
   2     0.0000       0.0000       0.0000      0.30142E-01   0.0000       0.0000     -0.80142E-01   0.0000      0.50000E-01   0.0000       0.0000       0.0000     -0.16107E-09
   3     0.0000       0.0000       0.0000      0.12489       0.0000      0.12300     -0.24789       0.0000       0.0000       0.0000       0.0000       0.0000      0.60483E-09
   4     0.0000      0.20000     -0.60000      0.97305E-01   0.0000      0.30270       0.0000       0.0000       0.0000       0.0000       0.0000       0.0000     -0.32530E-09
   5     0.0000       0.0000       0.0000      0.54805E-01   0.0000       0.0000     -0.54805E-01   0.0000       0.0000       0.0000       0.0000       0.0000      0.77411E-10
 
 SOLVING FOR HEAD 
MODFLOW ITER.#  NEWTON-RAPHSON ITER.#   MAXIMUM NODE HEAD CHANGE
         1                   1                  0.0000000000
         1                   2                  0.0000000000
         1                   3                  0.0000000000
     1 CALLS TO PCG ROUTINE FOR TIME STEP   9 IN STRESS PERIOD    5
     1 TOTAL ITERATIONS
MODFLOW ITER.#  NEWTON-RAPHSON ITER.#   MAXIMUM NODE HEAD CHANGE
         1                   1                  0.0000000000
         1                   2                  0.0000000000
         1                   3                  0.0000000000

 NO OUTPUT CONTROL FOR STRESS PERIOD    5   TIME STEP   9
 
 
 CFPM1 CRITERION OF CONVERGENCE:     0.1000000E-05
 CFPM1 MAXIMUM NUMBER OF ITERATIONS:   100
 
 
 CFPM1 RESULTS +++++++++++++++++++++++++++++++++++++++++++++++++++++++
 
 STRESS PERIOD/TIME STEP           5           9
 
NUMBER OF NEWTON RHAPSON ITERATIONS:     3
 
 ------- RESULTS OF FLOW CALCULATION -------
 
NODE# NODE HEAD[M] MATRIX HEAD [M] EXCHANGE [M^3/D]    CADSFLOW            PFPSFLOW         DIRECT RECHARGE        QWELL         FHLQ            CAUCHY         CAUCHY LQ               QLH              QFIX
    1  19.99962      20.00016       -0.4285452E-01       0.000000           0.000000           0.000000        0.000000         0.000000         0.000000         0.000000         0.000000         0.000000    
    2  19.99962      20.00000       -0.3014155E-01       0.000000           0.000000           0.000000        0.000000        0.5000000E-01     0.000000         0.000000         0.000000         0.000000    
    3  19.99962      20.00015       -0.1248938           0.000000           0.000000           0.000000        0.000000         0.000000         0.000000         0.000000         0.000000         0.000000    
    4  19.99962      20.00024       -0.9730485E-01       0.000000           0.000000          0.2000000       -.6000000         0.000000         0.000000         0.000000         0.000000         0.000000    
    5  19.99962      20.00031       -0.5480528E-01       0.000000           0.000000           0.000000        0.000000         0.000000         0.000000         0.000000         0.000000         0.000000    
 
TUBE  B  E  FLOW          Q [M^3/D]       DIAM.[M]        LEN.[M]        RE         RESIDENCE TIME [D]
   1   1   3   LAMI.         0.04285        0.10000       10.00000        7.07113        1.83271
   2   2   3   TURB.         0.08014        0.10000       10.00000       13.22360        0.98001
   3   3   4   TURB.         0.24789        0.10000       10.00000       40.90259        0.31683
   4   4   5   LAMI.        -0.05481        0.10000       10.00000        9.04304        1.43307
 

    BUDGET OF THE PIPE SYSTEM OF TIMESTEP    9 IN STRESS PERIOD    5
------------------------------------------------------------------------

  TOTAL SIMULATION TIME   490.000000000000      S
 
       CUMULATIVE VALUES (L**3)           RATES THIS TIME STEP (L**3/T)

            IN:                               IN:
     CONSTANT HEAD =   1.5311557          CONSTANT HEAD =   0.0000000    
      FHLQ BC (LQ) =   9.5000000           FHLQ BC (LQ) =  0.50000000E-01
   MATRIX EXCHANGE =   99.552060        MATRIX EXCHANGE =  0.35000000    
     PIPE RECHARGE =   108.00000          PIPE RECHARGE =  0.20000000    
           WELL BC =   0.0000000                WELL BC =   0.0000000    
       PFP STORAGE =   0.0000000            PFP STORAGE =   0.0000000    

     CUMULATIVE IN =   218.58322               TOTAL IN =  0.60000000    

           OUT:                               OUT:
     CONSTANT HEAD =   14.583216          CONSTANT HEAD =   0.0000000    
      FHLQ BC (LQ) =   0.0000000           FHLQ BC (LQ) =   0.0000000    
   MATRIX EXCHANGE =   0.0000000        MATRIX EXCHANGE =   0.0000000    
     PIPE RECHARGE =   0.0000000          PIPE RECHARGE =   0.0000000    
           WELL BC =   204.00000                WELL BC =  0.60000000    
       PFP STORAGE =   0.0000000            PFP STORAGE =   0.0000000    

    CUMULATIVE OUT =   218.58322              TOTAL OUT =  0.60000000    

          IN - OUT =  0.94209824E-07           IN - OUT =  0.23081537E-12
     PERCENT ERROR =  0.00                PERCENT ERROR =  0.00


 
 ------------------------NODE WATER BUDGET-----------------------
  STRESS PERIOD           5  TIME STEP           9
 TOTAL SIMULATION TIME   490.000000000000     
 
 FLOW TO THE NODE IN M^3/D
 
 NODE   FIXED HEAD     RECHARGE        QWELL  MATRIX EXCH      STORAGE      TUBE_IN     TUBE_OUT         CADS     FHLQ(LQ)       CAUCHY   CAUCHY(LQ)          QLH     IN - OUT
   1     0.0000       0.0000       0.0000      0.42855E-01   0.0000       0.0000     -0.42855E-01   0.0000       0.0000       0.0000       0.0000       0.0000     -0.24782E-09
   2     0.0000       0.0000       0.0000      0.30142E-01   0.0000       0.0000     -0.80142E-01   0.0000      0.50000E-01   0.0000       0.0000       0.0000      0.21440E-08
   3     0.0000       0.0000       0.0000      0.12489       0.0000      0.12300     -0.24789       0.0000       0.0000       0.0000       0.0000       0.0000     -0.18719E-08
   4     0.0000      0.20000     -0.60000      0.97305E-01   0.0000      0.30270       0.0000       0.0000       0.0000       0.0000       0.0000       0.0000     -0.37407E-09
   5     0.0000       0.0000       0.0000      0.54805E-01   0.0000       0.0000     -0.54805E-01   0.0000       0.0000       0.0000       0.0000       0.0000      0.35002E-09
 
 SOLVING FOR HEAD 
MODFLOW ITER.#  NEWTON-RAPHSON ITER.#   MAXIMUM NODE HEAD CHANGE
         1                   1                  0.0000000000
         1                   2                  0.0000000000
         1                   3                  0.0000000000
     1 CALLS TO PCG ROUTINE FOR TIME STEP  10 IN STRESS PERIOD    5
     1 TOTAL ITERATIONS

 MAXIMUM HEAD CHANGE FOR EACH ITERATION (1 INDICATES THE FIRST INNER ITERATION):

    HEAD CHANGE    HEAD CHANGE    HEAD CHANGE    HEAD CHANGE    HEAD CHANGE 
   LAYER,ROW,COL  LAYER,ROW,COL  LAYER,ROW,COL  LAYER,ROW,COL  LAYER,ROW,COL
 ---------------------------------------------------------------------------
  1 -0.8244E-10
   (  3,  1,  4)

 MAXIMUM RESIDUAL FOR EACH ITERATION (1 INDICATES THE FIRST INNER ITERATION):

    RESIDUAL       RESIDUAL       RESIDUAL       RESIDUAL       RESIDUAL    
   LAYER,ROW,COL  LAYER,ROW,COL  LAYER,ROW,COL  LAYER,ROW,COL  LAYER,ROW,COL
 ---------------------------------------------------------------------------
  1  0.5517E-07
   (  3,  2,  3)


MODFLOW ITER.#  NEWTON-RAPHSON ITER.#   MAXIMUM NODE HEAD CHANGE
         1                   1                  0.0000000000
         1                   2                  0.0000000000
         1                   3                  0.0000000000

 NO OUTPUT CONTROL FOR STRESS PERIOD    5   TIME STEP  10
 
 
 CFPM1 CRITERION OF CONVERGENCE:     0.1000000E-05
 CFPM1 MAXIMUM NUMBER OF ITERATIONS:   100
 
 
 CFPM1 RESULTS +++++++++++++++++++++++++++++++++++++++++++++++++++++++
 
 STRESS PERIOD/TIME STEP           5          10
 
NUMBER OF NEWTON RHAPSON ITERATIONS:     3
 
 ------- RESULTS OF FLOW CALCULATION -------
 
NODE# NODE HEAD[M] MATRIX HEAD [M] EXCHANGE [M^3/D]    CADSFLOW            PFPSFLOW         DIRECT RECHARGE        QWELL         FHLQ            CAUCHY         CAUCHY LQ               QLH              QFIX
    1  19.99962      20.00016       -0.4285452E-01       0.000000           0.000000           0.000000        0.000000         0.000000         0.000000         0.000000         0.000000         0.000000    
    2  19.99962      20.00000       -0.3014156E-01       0.000000           0.000000           0.000000        0.000000        0.5000000E-01     0.000000         0.000000         0.000000         0.000000    
    3  19.99962      20.00015       -0.1248938           0.000000           0.000000           0.000000        0.000000         0.000000         0.000000         0.000000         0.000000         0.000000    
    4  19.99962      20.00024       -0.9730485E-01       0.000000           0.000000          0.2000000       -.6000000         0.000000         0.000000         0.000000         0.000000         0.000000    
    5  19.99962      20.00031       -0.5480528E-01       0.000000           0.000000           0.000000        0.000000         0.000000         0.000000         0.000000         0.000000         0.000000    
 
TUBE  B  E  FLOW          Q [M^3/D]       DIAM.[M]        LEN.[M]        RE         RESIDENCE TIME [D]
   1   1   3   LAMI.         0.04285        0.10000       10.00000        7.07113        1.83271
   2   2   3   TURB.         0.08014        0.10000       10.00000       13.22360        0.98001
   3   3   4   TURB.         0.24789        0.10000       10.00000       40.90259        0.31683
   4   4   5   LAMI.        -0.05481        0.10000       10.00000        9.04304        1.43307
 

    BUDGET OF THE PIPE SYSTEM OF TIMESTEP   10 IN STRESS PERIOD    5
------------------------------------------------------------------------

  TOTAL SIMULATION TIME   500.000000000000      S
 
       CUMULATIVE VALUES (L**3)           RATES THIS TIME STEP (L**3/T)

            IN:                               IN:
     CONSTANT HEAD =   1.5311557          CONSTANT HEAD =   0.0000000    
      FHLQ BC (LQ) =   10.000000           FHLQ BC (LQ) =  0.50000000E-01
   MATRIX EXCHANGE =   103.05206        MATRIX EXCHANGE =  0.35000000    
     PIPE RECHARGE =   110.00000          PIPE RECHARGE =  0.20000000    
           WELL BC =   0.0000000                WELL BC =   0.0000000    
       PFP STORAGE =   0.0000000            PFP STORAGE =   0.0000000    

     CUMULATIVE IN =   224.58322               TOTAL IN =  0.60000000    

           OUT:                               OUT:
     CONSTANT HEAD =   14.583216          CONSTANT HEAD =   0.0000000    
      FHLQ BC (LQ) =   0.0000000           FHLQ BC (LQ) =   0.0000000    
   MATRIX EXCHANGE =   0.0000000        MATRIX EXCHANGE =   0.0000000    
     PIPE RECHARGE =   0.0000000          PIPE RECHARGE =   0.0000000    
           WELL BC =   210.00000                WELL BC =  0.60000000    
       PFP STORAGE =   0.0000000            PFP STORAGE =   0.0000000    

    CUMULATIVE OUT =   224.58322              TOTAL OUT =  0.60000000    

          IN - OUT =  0.94214926E-07           IN - OUT =  0.50986992E-12
     PERCENT ERROR =  0.00                PERCENT ERROR =  0.00


 
 ------------------------NODE WATER BUDGET-----------------------
  STRESS PERIOD           5  TIME STEP          10
 TOTAL SIMULATION TIME   500.000000000000     
 
 FLOW TO THE NODE IN M^3/D
 
 NODE   FIXED HEAD     RECHARGE        QWELL  MATRIX EXCH      STORAGE      TUBE_IN     TUBE_OUT         CADS     FHLQ(LQ)       CAUCHY   CAUCHY(LQ)          QLH     IN - OUT
   1     0.0000       0.0000       0.0000      0.42855E-01   0.0000       0.0000     -0.42855E-01   0.0000       0.0000       0.0000       0.0000       0.0000     -0.20931E-09
   2     0.0000       0.0000       0.0000      0.30142E-01   0.0000       0.0000     -0.80142E-01   0.0000      0.50000E-01   0.0000       0.0000       0.0000     -0.11805E-08
   3     0.0000       0.0000       0.0000      0.12489       0.0000      0.12300     -0.24789       0.0000       0.0000       0.0000       0.0000       0.0000      0.21890E-08
   4     0.0000      0.20000     -0.60000      0.97305E-01   0.0000      0.30270       0.0000       0.0000       0.0000       0.0000       0.0000       0.0000     -0.87149E-09
   5     0.0000       0.0000       0.0000      0.54805E-01   0.0000       0.0000     -0.54805E-01   0.0000       0.0000       0.0000       0.0000       0.0000      0.72862E-10
1
  VOLUMETRIC BUDGET FOR ENTIRE MODEL AT END OF TIME STEP 10 IN STRESS PERIOD   5
  ------------------------------------------------------------------------------

     CUMULATIVE VOLUMES      L**3       RATES FOR THIS TIME STEP      L**3/T
     ------------------                 ------------------------

           IN:                                      IN:
           ---                                      ---
             STORAGE =       3.0567E-05               STORAGE =       2.1199E-13
       CONSTANT HEAD =           4.6998         CONSTANT HEAD =       3.0142E-02
            RECHARGE =        1210.0000              RECHARGE =           2.2000
               PIPES =           0.0000                 PIPES =           0.0000

            TOTAL IN =        1214.6998              TOTAL IN =           2.2301

          OUT:                                     OUT:
          ----                                     ----
             STORAGE =       4.8330E-05               STORAGE =           0.0000
       CONSTANT HEAD =        1111.6469         CONSTANT HEAD =           1.8801
            RECHARGE =           0.0000              RECHARGE =           0.0000
               PIPES =         103.0521                 PIPES =           0.3500

           TOTAL OUT =        1214.6990             TOTAL OUT =           2.2301

            IN - OUT =       8.1904E-04              IN - OUT =      -3.8398E-07

 PERCENT DISCREPANCY =           0.00     PERCENT DISCREPANCY =           0.00






          TIME SUMMARY AT END OF TIME STEP  10 IN STRESS PERIOD    5
                    SECONDS     MINUTES      HOURS       DAYS        YEARS
                    -----------------------------------------------------------
   TIME STEP LENGTH 8.64000E+05  14400.      240.00      10.000     2.73785E-02
 STRESS PERIOD TIME 8.64000E+06 1.44000E+05  2400.0      100.00     0.27379    
         TOTAL TIME 4.32000E+07 7.20000E+05  12000.      500.00      1.3689    
1

 RUN END DATE AND TIME (YYYY/MM/DD HH:MM:SS): 2022/12/21 15:22:20
 ELAPSED RUN TIME:  0.092 SECONDS

